{"accessors":[{"bufferView":0,"byteOffset":0,"componentType":5126,"count":5186,"max":[3.7534804344177246,1.1627274751663208,2.764518976211548],"min":[-1.3177604675292969,-2.6333699226379395,-0.9848287105560303],"type":"VEC3"},{"bufferView":1,"byteOffset":0,"componentType":5126,"count":5186,"type":"VEC3"},{"bufferView":2,"byteOffset":0,"componentType":5121,"count":5186,"normalized":true,"type":"VEC4"},{"bufferView":3,"byteOffset":0,"componentType":5125,"count":30816,"type":"SCALAR"},{"bufferView":4,"byteOffset":0,"componentType":5126,"count":1226,"max":[3.2079629480877063,1.743796153382841,2.3541339088248794],"min":[-2.2279222796027525,-3.224140316491556,-0.49829450083481036],"type":"VEC3"},{"bufferView":5,"byteOffset":0,"componentType":5125,"count":7320,"type":"SCALAR"},{"bufferView":6,"byteOffset":0,"componentType":5126,"count":1350,"max":[4.01759115879234,1.0072811687462933,3.6142577213835194],"min":[-1.2961715073336761,-2.581381752260787,-1.6481929510798872],"type":"VEC3"},{"bufferView":7,"byteOffset":0,"componentType":5125,"count":8064,"type":"SCALAR"}],"asset":{"generator":"VTK","version":"2.0"},"bufferViews":[{"buffer":0,"byteLength":62232,"byteOffset":0,"target":34962},{"buffer":1,"byteLength":62232,"byteOffset":0,"target":34962},{"buffer":2,"byteLength":20744,"byteOffset":0,"target":34962},{"buffer":3,"byteLength":123264,"byteOffset":0,"target":34963},{"buffer":4,"byteLength":14712,"byteOffset":0,"target":34962},{"buffer":5,"byteLength":29280,"byteOffset":0,"target":34963},{"buffer":6,"byteLength":16200,"byteOffset":0,"target":34962},{"buffer":7,"byteLength":32256,"byteOffset":0,"target":34963}],"buffers":[{"byteLength":62232,"uri":"data:application/octet-stream;base64,NPoIQOXEZTzL1mo+NPoIQOXEZTzPwi6+jBULQOXEZTy7C2g+LiINQOXEZTwOvl8+yhEPQOXEZTy/J1I+29YQQOXEZTyvpz8+BmUSQOXEZTwNvyg+brETQOXEZTzUDQ4+ArMUQOXEZTzMnOA9vGIVQOXEZTwAoaA90LsVQOXEZTwczjs90LsVQOXEZTxIB1I8vGIVQOXEZTwm5KG8ArMUQOXEZTyr6VC9brETQOXEZTyx86O9BmUSQOXEZTwjVtm929YQQOXEZTyzkwO+yhEPQOXEZTzDExa+LiINQOXEZTwSqiO+jBULQOXEZTy/9yu+JvsKQL03xjy7C2g+Gu4MQI6jCz0Ovl8+dcUOQEPtMT2/J1I+WXQQQJ/tVD2vpz8+B+8RQDmwcz0Nvyg+KysTQCKvhj3UDQ4+JCAUQDeikD3MnOA9Q8cUQOBrlz0AoaA9+xsVQLncmj0czjs9+xsVQLncmj1IB1I8Q8cUQOBrlz0m5KG8JCAUQDeikD2r6VC9KysTQCKvhj2x86O9B+8RQDmwcz0jVtm9WXQQQJ/tVD2zkwO+dcUOQEPtMT3DExa+Gu4MQI6jCz0SqiO+JvsKQL03xjy/9yu+iq4KQGOyCD27C2g++lYMQB3KVT0Ovl8+7+cNQAlPjz2/J1I+eVYPQNmYsD2vpz8+mZgQQArazT0Nvyg+haURQFNG5j3UDQ4+6HUSQCkz+T3MnOA9EgQTQDEOAz4AoaA9I0wTQO1TBj4czjs9I0wTQO1TBj5IB1I8EgQTQDEOAz4m5KG86HUSQCkz+T2r6VC9haURQFNG5j2x86O9mZgQQArazT0jVtm9eVYPQNmYsD2zkwO+7+cNQAlPjz3DExa++lYMQB3KVT0SqiO+iq4KQGOyCD2/9yu+OTcKQN2GJj27C2g+l2sLQGJRiD0Ovl8+544MQPxvuj2/J1I+NpkNQEBB6D2vpz8+P4MOQJ5CCD4Nvyg+okYPQGIRGT7UDQ4+CN4PQI4XJj7MnOA9UkUQQC/6Lj4AoaA9rnkQQDl7Mz4czjs9rnkQQDl7Mz5IB1I8UkUQQC/6Lj4m5KG8CN4PQI4XJj6r6VC9okYPQGIRGT6x86O9P4MOQJ5CCD4jVtm9NpkNQEBB6D2zkwO+544MQPxvuj3DExa+l2sLQGJRiD0SqiO+OTcKQN2GJj2/9yu+3qAJQMitOT27C2g+/UIKQG41mz0Ovl8+JNwKQLUg1j2/J1I+JWgLQKT+BT6vpz8+MOMLQIapHT4Nvyg+6EkMQLtrMT7UDQ4+gZkMQEi7QD7MnOA9zs8MQEUtSz4AoaA9VesMQMB4UD4czjs9VesMQMB4UD5IB1I8zs8MQEUtSz4m5KG8gZkMQEi7QD6r6VC96EkMQLtrMT6x86O9MOMLQIapHT4jVtm9JWgLQKT+BT6zkwO+JNwKQLUg1j3DExa+/UIKQG41mz0SqiO+3qAJQMitOT2/9yu+NPoIQDZHQD27C2g+NPoIQNK3oT0Ovl8+NPoIQFGr3z2/J1I+NPoIQL4mDD6vpz8+NPoIQG0JJT4Nvyg+NPoIQPDPOT7UDQ4+NPoIQDTpST7MnOA9NPoIQMzkVD4AoaA9NPoIQAl2Wj4czjs9NPoIQAl2Wj5IB1I8NPoIQMzkVD4m5KG8NPoIQDTpST6r6VC9NPoIQPDPOT6x86O9NPoIQG0JJT4jVtm9NPoIQL4mDD6zkwO+NPoIQFGr3z3DExa+NPoIQNK3oT0SqiO+NPoIQDZHQD2/9yu+iVMIQMitOT27C2g+a7EHQG41mz0Ovl8+RBgHQLUg1j2/J1I+QowGQKT+BT6vpz8+OBEGQIapHT4Nvyg+gKoFQLtrMT7UDQ4+51oFQEi7QD7MnOA9miQFQEUtSz4AoaA9EwkFQMB4UD4czjs9EwkFQMB4UD5IB1I8miQFQEUtSz4m5KG851oFQEi7QD6r6VC9gKoFQLtrMT6x86O9OBEGQIapHT4jVtm9QowGQKT+BT6zkwO+RBgHQLUg1j3DExa+a7EHQG41mz0SqiO+iVMIQMitOT2/9yu+L70HQN2GJj27C2g+0IgGQGJRiD0Ovl8+gGUFQPxvuj2/J1I+MlsEQEBB6D2vpz8+KHEDQJ5CCD4Nvyg+xq0CQGIRGT7UDQ4+YBYCQI4XJj7MnOA9Fq8BQC/6Lj4AoaA9unoBQDl7Mz4czjs9unoBQDl7Mz5IB1I8Fq8BQC/6Lj4m5KG8YBYCQI4XJj6r6VC9xq0CQGIRGT6x86O9KHEDQJ5CCD4jVtm9MlsEQEBB6D2zkwO+gGUFQPxvuj3DExa+0IgGQGJRiD0SqiO+L70HQN2GJj2/9yu+3UUHQGOyCD27C2g+bp0FQB3KVT0Ovl8+eQwEQAlPjz2/J1I+750CQNmYsD2vpz8+z1sBQArazT0Nvyg+404AQFNG5j3UDQ4+AP3+Pykz+T3MnOA9rOD9PzEOAz4AoaA9ilD9P+1TBj4czjs9ilD9P+1TBj5IB1I8rOD9PzEOAz4m5KG8AP3+Pykz+T2r6VC9404AQFNG5j2x86O9z1sBQArazT0jVtm9750CQNmYsD2zkwO+eQwEQAlPjz3DExa+bp0FQB3KVT0SqiO+3UUHQGOyCD2/9yu+QvkGQL03xjy7C2g+TQYFQI6jCz0Ovl8+8y4DQEPtMT2/J1I+D4ABQJ/tVD2vpz8+YAUAQDmwcz0Nvyg+epL9PyKvhj3UDQ4+iaj7PzeikD3MnOA9SVr6P+Brlz0AoaA92rD5P7ncmj0czjs92rD5P7ncmj1IB1I8SVr6P+Brlz0m5KG8iaj7PzeikD2r6VC9epL9PyKvhj2x86O9YAUAQDmwcz0jVtm9D4ABQJ/tVD2zkwO+8y4DQEPtMT3DExa+TQYFQI6jCz0SqiO+QvkGQL03xjy/9yu+3N4GQOXEZTy7C2g+OtIEQOXEZTwOvl8+nuICQOXEZTy/J1I+jR0BQOXEZTyvpz8+xB7/P+XEZTwNvyg+9IX8P+XEZTzUDQ4+y4L6P+XEZTzMnOA9WCP5P+XEZTwAoaA9MHH4P+XEZTwczjs9MHH4P+XEZTxIB1I8WCP5P+XEZTwm5KG8y4L6P+XEZTyr6VC99IX8P+XEZTyx86O9xB7/P+XEZTwjVtm9jR0BQOXEZTyzkwO+nuICQOXEZTzDExa+OtIEQOXEZTwSqiO+3N4GQOXEZTy/9yu+QvkGQEZpfDu7C2g+TQYFQN0IxrsOvl8+8y4DQEErfLy/J1I+D4ABQFkWxLyvpz8+YAUAQMfNAL0Nvyg+epL9P9J7Gr3UDQ4+iaj7P/thLr3MnOA9SVr6P071O70AoaA92rD5P//WQr0czjs92rD5P//WQr1IB1I8SVr6P071O70m5KG8iaj7P/thLr2r6VC9epL9P9J7Gr2x86O9YAUAQMfNAL0jVtm9D4ABQFkWxLyzkwO+8y4DQEErfLzDExa+TQYFQN0IxrsSqiO+QvkGQEZpfDu/9yu+3UUHQIV/rru7C2g+bp0FQFXPxbwOvl8+eQwEQKC7K72/J1I+750CQD9Pbr2vpz8+z1sBQNBolL0Nvyg+404AQBnVrL3UDQ4+AP3+P+/Bv73MnOA9rOD9PymrzL0AoaA9ilD9P6E2070czjs9ilD9P6E2071IB1I8rOD9PymrzL0m5KG8AP3+P+/Bv72r6VC9404AQBnVrL2x86O9z1sBQNBolL0jVtm9750CQD9Pbr2zkwO+eQwEQKC7K73DExa+bp0FQFXPxbwSqiO+3UUHQIV/rru/9yu+L70HQKmRTry7C2g+0IgGQFHAHb0Ovl8+gGUFQML+gL2/J1I+MlsEQAbQrr2vpz8+KHEDQAIU170Nvyg+xq0CQIux+L3UDQ4+YBYCQPJeCb7MnOA9Fq8BQJNBEr4AoaA9unoBQJ3CFr4czjs9unoBQJ3CFr5IB1I8Fq8BQJNBEr4m5KG8YBYCQPJeCb6r6VC9xq0CQIux+L2x86O9KHEDQAIU170jVtm9MlsEQAbQrr2zkwO+gGUFQML+gL3DExa+0IgGQFHAHb0SqiO+L70HQKmRTry/9yu+iVMIQKuWjby7C2g+a7EHQGqIQ70Ovl8+RBgHQHuvnL2/J1I+QowGQA+M0r2vpz8+OBEGQOrwAL4Nvyg+gKoFQB+zFL7UDQ4+51oFQKwCJL7MnOA9miQFQKl0Lr4AoaA9EwkFQCTAM74czjs9EwkFQCTAM75IB1I8miQFQKl0Lr4m5KG851oFQKwCJL6r6VC9gKoFQB+zFL6x86O9OBEGQOrwAL4jVtm9QowGQA+M0r2zkwO+RBgHQHuvnL3DExa+a7EHQGqIQ70SqiO+iVMIQKuWjby/9yu+NPoIQIfJmry7C2g+NPoIQDGNUL0Ovl8+NPoIQBc6pr2/J1I+NPoIQELc3r2vpz8+NPoIQNFQCL4Nvyg+NPoIQFQXHb7UDQ4+NPoIQJgwLb7MnOA9NPoIQDAsOL4AoaA9NPoIQG29Pb4czjs9NPoIQG29Pb5IB1I8NPoIQDAsOL4m5KG8NPoIQJgwLb6r6VC9NPoIQFQXHb6x86O9NPoIQNFQCL4jVtm9NPoIQELc3r2zkwO+NPoIQBc6pr3DExa+NPoIQDGNUL0SqiO+NPoIQIfJmry/9yu+3qAJQKuWjby7C2g+/UIKQGqIQ70Ovl8+JNwKQHuvnL2/J1I+JWgLQA+M0r2vpz8+MOMLQOrwAL4Nvyg+6EkMQB+zFL7UDQ4+gZkMQKwCJL7MnOA9zs8MQKl0Lr4AoaA9VesMQCTAM74czjs9VesMQCTAM75IB1I8zs8MQKl0Lr4m5KG8gZkMQKwCJL6r6VC96EkMQB+zFL6x86O9MOMLQOrwAL4jVtm9JWgLQA+M0r2zkwO+JNwKQHuvnL3DExa+/UIKQGqIQ70SqiO+3qAJQKuWjby/9yu+OTcKQKmRTry7C2g+l2sLQFHAHb0Ovl8+544MQML+gL2/J1I+NpkNQAbQrr2vpz8+P4MOQAIU170Nvyg+okYPQIux+L3UDQ4+CN4PQPJeCb7MnOA9UkUQQJNBEr4AoaA9rnkQQJ3CFr4czjs9rnkQQJ3CFr5IB1I8UkUQQJNBEr4m5KG8CN4PQPJeCb6r6VC9okYPQIux+L2x86O9P4MOQAIU170jVtm9NpkNQAbQrr2zkwO+544MQML+gL3DExa+l2sLQFHAHb0SqiO+OTcKQKmRTry/9yu+iq4KQIV/rru7C2g++lYMQFXPxbwOvl8+7+cNQKC7K72/J1I+eVYPQD9Pbr2vpz8+mZgQQNBolL0Nvyg+haURQBnVrL3UDQ4+6HUSQO/Bv73MnOA9EgQTQCmrzL0AoaA9I0wTQKE2070czjs9I0wTQKE2071IB1I8EgQTQCmrzL0m5KG86HUSQO/Bv72r6VC9haURQBnVrL2x86O9mZgQQNBolL0jVtm9eVYPQD9Pbr2zkwO+7+cNQKC7K73DExa++lYMQFXPxbwSqiO+iq4KQIV/rru/9yu+JvsKQEZpfDu7C2g+Gu4MQN0IxrsOvl8+dcUOQEErfLy/J1I+WXQQQFkWxLyvpz8+B+8RQMfNAL0Nvyg+KysTQNJ7Gr3UDQ4+JCAUQPthLr3MnOA9Q8cUQE71O70AoaA9+xsVQP/WQr0czjs9+xsVQP/WQr1IB1I8Q8cUQE71O70m5KG8JCAUQPthLr2r6VC9KysTQNJ7Gr2x86O9B+8RQMfNAL0jVtm9WXQQQFkWxLyzkwO+dcUOQEErfLzDExa+Gu4MQN0IxrsSqiO+JvsKQEZpfDu/9yu+KSmPvx3JLD5VtxW/KSmPvx3JLD68HXy/efKKvx3JLD4Zaha/NdmGvx3JLD6EfRi//fmCvx3JLD4Y4xu/td9+vx3JLD4cgyC/Cad4vx3JLD5FPSa/aXVzvx3JLD6T6Sy/GG9vvx3JLD5uWTS/MrBsvx3JLD7oWDy/4ktrvx3JLD4msES/4ktrvx3JLD7rJE2/MrBsvx3JLD4pfFW/GG9vvx3JLD6je12/aXVzvx3JLD5+62S/Cad4vx3JLD7Ml2u/td9+vx3JLD71UXG//fmCvx3JLD758XW/NdmGvx3JLD6MV3m/efKKvx3JLD74anu/RCeLv8YzNz4Zaha/W0GHv7JVQT6EfRi/p5KDvx/oSj4Y4xu/3jSAvzaoUz4cgyC/A396v91YWz5FPSa/do51v2DEYT6T6Sy/k7pxv+q9Zj5uWTS/Ex5vv78iaj7oWDy/Ncttvyvbaz4msES/Ncttvyvbaz7rJE2/Ex5vv78iaj4pfFW/k7pxv+q9Zj6je12/do51v2DEYT5+62S/A396v91YWz7Ml2u/3jSAvzaoUz71UXG/p5KDvx/oSj758XW/W0GHv7JVQT6MV3m/RCeLv8YzNz74anu/e8CLv2eZQD4Zaha/nG+Iv1bfUz6EfRi/s02Fv1MUZj4Y4xu/nnCCvzu5dj4cgyC/vdh/v+qsgj5FPSa/DKV7v/zHiD6T6Sy/gWN4vzGDjT5uWTS/2Sp2v4C9kD7oWDy/lgp1v15gkj4msES/lgp1v15gkj7rJE2/2Sp2v4C9kD4pfFW/gWN4vzGDjT6je12/DKV7v/zHiD5+62S/vdh/v+qsgj7Ml2u/nnCCvzu5dj71UXG/s02Fv1MUZj758XW/nG+Iv1bfUz6MV3m/e8CLv2eZQD74anu/H6+Mv4YOSD4Zaha/YUaKv3+VYj6EfRi/wv+Hv8ykez4Y4xu/JeuFv7dGiT4cgyC/EheEv7ZXkz5FPSa/TZCCvxi/mz6T6Sy/gGGBvy5Coj5uWTS/7JKAv3+zpj7oWDy/NSqAvwT0qD4msES/NSqAvwT0qD7rJE2/7JKAv3+zpj4pfFW/gGGBvy5Coj6je12/TZCCvxi/mz5+62S/EheEv7ZXkz7Ml2u/JeuFv7dGiT71UXG/wv+Hv8ykez758XW/YUaKv3+VYj6MV3m/H6+Mv4YOSD74anu/09uNv0HYTD4Zaha/lpeMv4YHbD6EfRi/SGWLv5S+hD4Y4xu/RU2Kv7k1kj4cgyC/MVeJvyoLnj5FPSa/wImIv0Xspz6T6Sy/j+qHvwuUrz5uWTS/9H2HvwrNtD7oWDy/50aHv8dytz4msES/50aHv8dytz7rJE2/9H2HvwrNtD4pfFW/j+qHvwuUrz6je12/wImIv0Xspz5+62S/MVeJvyoLnj7Ml2u/RU2Kv7k1kj71UXG/SGWLv5S+hD758XW/lpeMv4YHbD6MV3m/09uNv0HYTD74anu/KSmPv5x+Tj4Zaha/KSmPv7dIbz6EfRi/KSmPvzshhz4Y4xu/KSmPv8ZJlT4cgyC/KSmPvx67oT5FPSa/KSmPv18erD6T6Sy/KSmPvwErtD5uWTS/KSmPv82ouT7oWDy/KSmPv2xxvD4msES/KSmPv2xxvD7rJE2/KSmPv82ouT4pfFW/KSmPvwErtD6je12/KSmPv18erD5+62S/KSmPvx67oT7Ml2u/KSmPv8ZJlT71UXG/KSmPvzshhz758XW/KSmPv7dIbz6MV3m/KSmPv5x+Tj74anu/fnaQv0HYTD4Zaha/u7qRv4YHbD6EfRi/Ce2Sv5S+hD4Y4xu/DAWUv7k1kj4cgyC/IfuUvyoLnj5FPSa/kciVv0Xspz6T6Sy/wmeWvwuUrz5uWTS/XdSWvwrNtD7oWDy/aguXv8dytz4msES/aguXv8dytz7rJE2/XdSWvwrNtD4pfFW/wmeWvwuUrz6je12/kciVv0Xspz5+62S/IfuUvyoLnj7Ml2u/DAWUv7k1kj71UXG/Ce2Sv5S+hD758XW/u7qRv4YHbD6MV3m/fnaQv0HYTD74anu/MqORv4YOSD4Zaha/8AuUv3+VYj6EfRi/j1KWv8ykez4Y4xu/LGeYv7dGiT4cgyC/Pzuav7ZXkz5FPSa/BMKbvxi/mz6T6Sy/0fCcvy5Coj5uWTS/Zb+dv3+zpj7oWDy/HCievwT0qD4msES/HCievwT0qD7rJE2/Zb+dv3+zpj4pfFW/0fCcvy5Coj6je12/BMKbvxi/mz5+62S/Pzuav7ZXkz7Ml2u/LGeYv7dGiT71UXG/j1KWv8ykez758XW/8AuUv3+VYj6MV3m/MqORv4YOSD74anu/1pGSv2eZQD4Zaha/teKVv1bfUz6EfRi/nwSZv1MUZj4Y4xu/s+Gbvzu5dj4cgyC/82Wev+qsgj5FPSa/y3+gv/zHiD6T6Sy/kSCivzGDjT5uWTS/5Tyjv4C9kD7oWDy/Bs2jv15gkj4msES/Bs2jv15gkj7rJE2/5Tyjv4C9kD4pfFW/kSCivzGDjT6je12/y3+gv/zHiD5+62S/82Wev+qsgj7Ml2u/s+Gbvzu5dj71UXG/nwSZv1MUZj758XW/teKVv1bfUz6MV3m/1pGSv2eZQD74anu/DSuTv8YzNz4Zaha/9hCXv7JVQT6EfRi/qr+avx/oSj4Y4xu/cx2evzaoUz4cgyC/0BKhv91YWz5FPSa/Foujv2DEYT6T6Sy/CHWlv+q9Zj5uWTS/R8Omv78iaj7oWDy/t2ynvyvbaz4msES/t2ynvyvbaz7rJE2/R8Omv78iaj4pfFW/CHWlv+q9Zj6je12/Foujv2DEYT5+62S/0BKhv91YWz7Ml2u/cx2evzaoUz71UXG/qr+avx/oSj758XW/9hCXv7JVQT6MV3m/DSuTv8YzNz74anu/2F+Tvx3JLD4Zaha/HHmXvx3JLD6EfRi/VFibvx3JLD4Y4xu/d+Kevx3JLD4cgyC/zP6hvx3JLD5FPSa/nZekvx3JLD6T6Sy/xZqmvx3JLD5uWTS/OPqnvx3JLD7oWDy/YKyovx3JLD4msES/YKyovx3JLD7rJE2/OPqnvx3JLD4pfFW/xZqmvx3JLD6je12/nZekvx3JLD5+62S/zP6hvx3JLD7Ml2u/d+Kevx3JLD71UXG/VFibvx3JLD758XW/HHmXvx3JLD6MV3m/2F+Tvx3JLD74anu/DSuTv3ReIj4Zaha/9hCXv4g8GD6EfRi/qr+avxqqDj4Y4xu/cx2evwPqBT4cgyC/0BKhv7py/D1FPSa/Foujv7Sb7z2T6Sy/CHWlv6Co5T1uWTS/R8Omv/be3j3oWDy/t2ynvx5u2z0msES/t2ynvx5u2z3rJE2/R8Omv/be3j0pfFW/CHWlv6Co5T2je12/Foujv7Sb7z1+62S/0BKhv7py/D3Ml2u/cx2evwPqBT71UXG/qr+avxqqDj758XW/9hCXv4g8GD6MV3m/DSuTv3ReIj74anu/1pGSv9L4GD4Zaha/teKVv+SyBT6EfRi/nwSZv8375j0Y4xu/s+Gbv/6xxT0cgyC/82Wev81wqD1FPSa/y3+gv4QEkD2T6Sy/kSCiv1svej1uWTS/5Tyjv+dcYD3oWDy/Bs2jv/dFUz0msES/Bs2jv/dFUz3rJE2/5Tyjv+dcYD0pfFW/kSCiv1svej2je12/y3+gv4QEkD1+62S/82Wev81wqD3Ml2u/s+Gbv/6xxT31UXG/nwSZv8375j358XW/teKVv+SyBT6MV3m/1pGSv9L4GD74anu/MqORv7SDET4Zaha/8AuUv3X57T2EfRi/j1KWv9vauz0Y4xu/LGeYv5cJjj0cgyC/PzuavzWLSz1FPSa/BMKbvyNQCD2T6Sy/0fCcv+duqDxuWTS/Zb+dv72zQjzoWDy/HCievzpG9TsmsES/HCievzpG9TvrJE2/Zb+dv72zQjwpfFW/0fCcv+duqDyje12/BMKbvyNQCD1+62S/PzuavzWLSz3Ml2u/LGeYv5cJjj31UXG/j1KWv9vauz358XW/8AuUv3X57T2MV3m/MqORv7SDET74anu/fnaQv/m5DD4Zaha/u7qRv2gV2z2EfRi/Ce2SvyIqoD0Y4xu/DAWUvxubVD0cgyC/IfuUvyff6zxFPSa/kciVv/2aGzyT6Sy/wmeWv6a7srtuWTS/XdSWv9E+gLzoWDy/aguXv6maqrwmsES/aguXv6maqrzrJE2/XdSWv9E+gLwpfFW/wmeWv6a7sruje12/kciVv/2aGzx+62S/IfuUvyff6zzMl2u/DAWUvxubVD31UXG/Ce2SvyIqoD358XW/u7qRv2gV2z2MV3m/fnaQv/m5DD74anu/KSmPv54TCz4Zaha/KSmPvwWT1D2EfRi/KSmPv4aflj0Y4xu/KSmPv7X6Oz0cgyC/KSmPv+/fsDxFPSa/KSmPv2m9qjqT6Sy/KSmPv5M8bLxuWTS/KSmPvwn7zbzoWDy/KSmPv/GE+rwmsES/KSmPv/GE+rzrJE2/KSmPvwn7zbwpfFW/KSmPv5M8bLyje12/KSmPv2m9qjp+62S/KSmPv+/fsDzMl2u/KSmPv7X6Oz31UXG/KSmPv4aflj358XW/KSmPvwWT1D2MV3m/KSmPv54TCz74anu/09uNv/m5DD4Zaha/lpeMv2gV2z2EfRi/SGWLvyIqoD0Y4xu/RU2KvxubVD0cgyC/MVeJvyff6zxFPSa/wImIv/2aGzyT6Sy/j+qHv6a7srtuWTS/9H2Hv9E+gLzoWDy/50aHv6maqrwmsES/50aHv6maqrzrJE2/9H2Hv9E+gLwpfFW/j+qHv6a7sruje12/wImIv/2aGzx+62S/MVeJvyff6zzMl2u/RU2KvxubVD31UXG/SGWLvyIqoD358XW/lpeMv2gV2z2MV3m/09uNv/m5DD74anu/H6+Mv7SDET4Zaha/YUaKv3X57T2EfRi/wv+Hv9vauz0Y4xu/JeuFv5cJjj0cgyC/EheEvzWLSz1FPSa/TZCCvyNQCD2T6Sy/gGGBv+duqDxuWTS/7JKAv72zQjzoWDy/NSqAvzpG9TsmsES/NSqAvzpG9TvrJE2/7JKAv72zQjwpfFW/gGGBv+duqDyje12/TZCCvyNQCD1+62S/EheEvzWLSz3Ml2u/JeuFv5cJjj31UXG/wv+Hv9vauz358XW/YUaKv3X57T2MV3m/H6+Mv7SDET74anu/e8CLv9L4GD4Zaha/nG+Iv+SyBT6EfRi/s02Fv8375j0Y4xu/nnCCv/6xxT0cgyC/vdh/v81wqD1FPSa/DKV7v4QEkD2T6Sy/gWN4v1svej1uWTS/2Sp2v+dcYD3oWDy/lgp1v/dFUz0msES/lgp1v/dFUz3rJE2/2Sp2v+dcYD0pfFW/gWN4v1svej2je12/DKV7v4QEkD1+62S/vdh/v81wqD3Ml2u/nnCCv/6xxT31UXG/s02Fv8375j358XW/nG+Iv+SyBT6MV3m/e8CLv9L4GD74anu/RCeLv3ReIj4Zaha/W0GHv4g8GD6EfRi/p5KDvxqqDj4Y4xu/3jSAvwPqBT4cgyC/A396v7py/D1FPSa/do51v7Sb7z2T6Sy/k7pxv6Co5T1uWTS/Ex5vv/be3j3oWDy/Ncttvx5u2z0msES/Ncttvx5u2z3rJE2/Ex5vv/be3j0pfFW/k7pxv6Co5T2je12/do51v7Sb7z1+62S/A396v7py/D3Ml2u/3jSAvwPqBT71UXG/p5KDvxqqDj758XW/W0GHv4g8GD6MV3m/RCeLv3ReIj74anu/1UEFPv44XD/r0wk/1UEFPv44XD8Ttg0+VfcmPv44XD8nIQk/cMFHPv44XD+8DQc/L7tmPv44XD8oqAM/IoaBPv44XD9IEP4+eveNPv44XD/3m/I+vFqYPv44XD9bQ+U+XmegPv44XD+kY9Y+KuWlPv44XD+xZMY+yK2oPv44XD80trU+yK2oPv44XD+rzKQ+KuWlPv44XD8vHpQ+XmegPv44XD88H4Q+vFqYPv44XD8Kf2o+eveNPv44XD/RzU8+IoaBPv44XD8v5Tg+L7tmPv44XD8fZSY+cMFHPv44XD/Qzhg+VfcmPv44XD8jgRA++VAlPqnTXj8nIQk/PoBEPiRcYT+8DQc/4fVhPr/AYz8oqAM/K+R8PsXwZT9IEP4+h0eKPu7cZz/3m/I+oSiUPs93aT9bQ+U+aNCbPjK2aj+kY9Y+ZgmhPmePaz+xZMY+JK+jPoL9az80trU+JK+jPoL9az+rzKQ+ZgmhPmePaz8vHpQ+aNCbPjK2aj88H4Q+oSiUPs93aT8Kf2o+h0eKPu7cZz/RzU8+K+R8PsXwZT8v5Tg+4fVhPr/AYz8fZSY+PoBEPiRcYT/Qzhg++VAlPqnTXj8jgRA+PocgPhEtYT8nIQk/OA47Po3+ZT+8DQc/hR1UPsyLaj8oqAM/JwZrPga1bj9IEP4+JSh/Pixdcj/3m/I+dfuHPrVqdT9bQ+U+i36OPlDIdz+kY9Y+2++SPndleT+xZMY+YDCVPuY2ej80trU+YDCVPuY2ej+rzKQ+2++SPndleT8vHpQ+i36OPlDIdz88H4Q+dfuHPrVqdT8Kf2o+JSh/Pixdcj/RzU8+JwZrPga1bj8v5Tg+hR1UPsyLaj8fZSY+OA47Po3+ZT/Qzhg+PocgPhEtYT8jgRA+IBIZPlkKYz8nIQk/DlgsPhesaT+8DQc/DI0+Purvbz8oqAM/8zFPPhOqdT9IEP4+jNJdPpKyej/3m/I+sAhqPkPmfj9bQ+U+G39zPucTgT+kY9Y+uPN5Pjswgj+xZMY+dDl9Pl3Agj80trU+dDl9Pl3Agj+rzKQ+uPN5Pjswgj8vHpQ+G39zPucTgT88H4Q+sAhqPkPmfj8Kf2o+jNJdPpKyej/RzU8+8zFPPhOqdT8v5Tg+DI0+Purvbz8fZSY+DlgsPhesaT/Qzhg+IBIZPlkKYz8jgRA+f6wPPsc8ZD8nIQk/a84ZPpkIbD+8DQc/2GAjPgFmcz8oqAM/7yAsPpQhej9IEP4+ldEzPiYGgD/3m/I+GD06Pm1+gj9bQ+U+ojY/Pl5ohD+kY9Y+d5tCPp62hT+xZMY+41NEPg1ghj80trU+41NEPg1ghj+rzKQ+d5tCPp62hT8vHpQ+ojY/Pl5ohD88H4Q+GD06Pm1+gj8Kf2o+ldEzPiYGgD/RzU8+7yAsPpQhej8v5Tg+2GAjPgFmcz8fZSY+a84ZPpkIbD/Qzhg+f6wPPsc8ZD8jgRA+1UEFPl6mZD8nIQk/1UEFPuXYbD+8DQc/1UEFPlWXdD8oqAM/1UEFPpqrez9IEP4+1UEFPiPygD/3m/I+1UEFPvOKgz9bQ+U+1UEFPhyOhT+kY9Y+1UEFPo/thj+xZMY+1UEFPrefhz80trU+1UEFPrefhz+rzKQ+1UEFPo/thj8vHpQ+1UEFPhyOhT88H4Q+1UEFPvOKgz8Kf2o+1UEFPiPygD/RzU8+1UEFPpqrez8v5Tg+1UEFPlWXdD8fZSY+1UEFPuXYbD/Qzhg+1UEFPl6mZD8jgRA+WK71Pcc8ZD8nIQk/gGrhPZkIbD+8DQc/pkXOPQFmcz8oqAM/eMW8PZQhej9IEP4+K2StPSYGgD/3m/I+JY2gPW1+gj9bQ+U+EZqWPV5ohD+kY9Y+Z9CPPZ62hT+xZMY+j1+MPQ1ghj80trU+j1+MPQ1ghj+rzKQ+Z9CPPZ62hT8vHpQ+EZqWPV5ohD88H4Q+JY2gPW1+gj8Kf2o+K2StPSYGgD/RzU8+eMW8PZQhej8v5Tg+pkXOPQFmcz8fZSY+gGrhPZkIbD/Qzhg+WK71Pcc8ZD8jgRA+FuPiPVkKYz8nIQk/OVe8PResaT+8DQc/Pu2XPervbz8oqAM/3kZtPROqdT9IEP4+fMQyPZKyej/3m/I+6usBPUPmfj9bQ+U+fCS4POcTgT+kY9Y+lH+EPDswgj+xZMY+aKNUPF3Agj80trU+aKNUPF3Agj+rzKQ+lH+EPDswgj8vHpQ+fCS4POcTgT88H4Q+6usBPUPmfj8Kf2o+fMQyPZKyej/RzU8+3kZtPROqdT8v5Tg+Pu2XPervbz8fZSY+OVe8PResaT/Qzhg+FuPiPVkKYz8jgRA+2fjTPREtYT8nIQk/5uqePY3+ZT+8DQc/mJhZPcyLaj8oqAM/IOz7PAa1bj9IEP4+YLg1PCxdcj/3m/I+0Weuu7VqdT9bQ+U+VMuTvFDIdz+kY9Y+XODavHdleT+xZMY+rOj+vOY2ej80trU+rOj+vOY2ej+rzKQ+XODavHdleT8vHpQ+VMuTvFDIdz88H4Q+0Weuu7VqdT8Kf2o+YLg1PCxdcj/RzU8+IOz7PAa1bj8v5Tg+mJhZPcyLaj8fZSY+5uqePY3+ZT/Qzhg+2fjTPREtYT8jgRA+Y2XKPanTXj8nIQk/2QaMPSRcYT+8DQc/JjciPb/AYz8oqAM/+PdZPMXwZT9IEP4+KLYgvO7cZz/3m/I+vGzuvM93aT9bQ+U+knQ0vTK2aj+kY9Y+hjxevWePaz+xZMY+cmpzvYL9az80trU+cmpzvYL9az+rzKQ+hjxevWePaz8vHpQ+knQ0vTK2aj88H4Q+vGzuvM93aT8Kf2o+KLYgvO7cZz/RzU8++PdZPMXwZT8v5Tg+JjciPb/AYz8fZSY+2QaMPSRcYT/Qzhg+Y2XKPanTXj8jgRA+rBjHPf44XD8nIQk/doSFPf44XD+8DQc/7iEPPf44XD8oqAM/v+zuO/44XD9IEP4+TFqLvP44XD/3m/I+MscYvf44XD9bQ+U+QixZvf44XD+kY9Y+UY2Cvf44XD+xZMY+y6+Nvf44XD80trU+y6+Nvf44XD+rzKQ+UY2Cvf44XD8vHpQ+QixZvf44XD88H4Q+MscYvf44XD8Kf2o+TFqLvP44XD/RzU8+v+zuO/44XD8v5Tg+7iEPPf44XD8fZSY+doSFPf44XD/Qzhg+rBjHPf44XD8jgRA+Y2XKPVSeWT8nIQk/2QaMPdkVVz+8DQc/JjciPT6xVD8oqAM/+PdZPDiBUj9IEP4+KLYgvA6VUD/3m/I+vGzuvC76Tj9bQ+U+knQ0vcu7TT+kY9Y+hjxevZbiTD+xZMY+cmpzvXt0TD80trU+cmpzvXt0TD+rzKQ+hjxevZbiTD8vHpQ+knQ0vcu7TT88H4Q+vGzuvC76Tj8Kf2o+KLYgvA6VUD/RzU8++PdZPDiBUj8v5Tg+JjciPT6xVD8fZSY+2QaMPdkVVz/Qzhg+Y2XKPVSeWT8jgRA+2fjTPexEVz8nIQk/5uqePXBzUj+8DQc/mJhZPTHmTT8oqAM/IOz7PPe8ST9IEP4+YLg1PNEURj/3m/I+0Weuu0gHQz9bQ+U+VMuTvK2pQD+kY9Y+XODavIYMPz+xZMY+rOj+vBc7Pj80trU+rOj+vBc7Pj+rzKQ+XODavIYMPz8vHpQ+VMuTvK2pQD88H4Q+0Weuu0gHQz8Kf2o+YLg1PNEURj/RzU8+IOz7PPe8ST8v5Tg+mJhZPTHmTT8fZSY+5uqePXBzUj/Qzhg+2fjTPexEVz8jgRA+FuPiPaRnVT8nIQk/OVe8PebFTj+8DQc/Pu2XPROCSD8oqAM/3kZtPerHQj9IEP4+fMQyPWu/PT/3m/I+6usBPbmLOT9bQ+U+fCS4PC5KNj+kY9Y+lH+EPIYRND+xZMY+aKNUPETxMj80trU+aKNUPETxMj+rzKQ+lH+EPIYRND8vHpQ+fCS4PC5KNj88H4Q+6usBPbmLOT8Kf2o+fMQyPWu/PT/RzU8+3kZtPerHQj8v5Tg+Pu2XPROCSD8fZSY+OVe8PebFTj/Qzhg+FuPiPaRnVT8jgRA+WK71PTY1VD8nIQk/gGrhPWRpTD+8DQc/pkXOPfsLRT8oqAM/eMW8PWlQPj9IEP4+K2StPbBlOD/3m/I+JY2gPSN1Mz9bQ+U+EZqWPUChLz+kY9Y+Z9CPPcEELT+xZMY+j1+MPeKxKz80trU+j1+MPeKxKz+rzKQ+Z9CPPcEELT8vHpQ+EZqWPUChLz88H4Q+JY2gPSN1Mz8Kf2o+K2StPbBlOD/RzU8+eMW8PWlQPj8v5Tg+pkXOPfsLRT8fZSY+gGrhPWRpTD/Qzhg+WK71PTY1VD8jgRA+1UEFPp/LUz8nIQk/1UEFPhiZSz+8DQc/1UEFPqjaQz8oqAM/1UEFPmPGPD9IEP4+1UEFPreNNj/3m/I+1UEFPhZcMT9bQ+U+1UEFPsVVLT+kY9Y+1UEFPt+WKj+xZMY+1UEFPpAyKT80trU+1UEFPpAyKT+rzKQ+1UEFPt+WKj8vHpQ+1UEFPsVVLT88H4Q+1UEFPhZcMT8Kf2o+1UEFPreNNj/RzU8+1UEFPmPGPD8v5Tg+1UEFPqjaQz8fZSY+1UEFPhiZSz/Qzhg+1UEFPp/LUz8jgRA+f6wPPjY1VD8nIQk/a84ZPmRpTD+8DQc/2GAjPvsLRT8oqAM/7yAsPmlQPj9IEP4+ldEzPrBlOD/3m/I+GD06PiN1Mz9bQ+U+ojY/PkChLz+kY9Y+d5tCPsEELT+xZMY+41NEPuKxKz80trU+41NEPuKxKz+rzKQ+d5tCPsEELT8vHpQ+ojY/PkChLz88H4Q+GD06PiN1Mz8Kf2o+ldEzPrBlOD/RzU8+7yAsPmlQPj8v5Tg+2GAjPvsLRT8fZSY+a84ZPmRpTD/Qzhg+f6wPPjY1VD8jgRA+IBIZPqRnVT8nIQk/DlgsPubFTj+8DQc/DI0+PhOCSD8oqAM/8zFPPurHQj9IEP4+jNJdPmu/PT/3m/I+sAhqPrmLOT9bQ+U+G39zPi5KNj+kY9Y+uPN5PoYRND+xZMY+dDl9PkTxMj80trU+dDl9PkTxMj+rzKQ+uPN5PoYRND8vHpQ+G39zPi5KNj88H4Q+sAhqPrmLOT8Kf2o+jNJdPmu/PT/RzU8+8zFPPurHQj8v5Tg+DI0+PhOCSD8fZSY+DlgsPubFTj/Qzhg+IBIZPqRnVT8jgRA+PocgPuxEVz8nIQk/OA47PnBzUj+8DQc/hR1UPjHmTT8oqAM/JwZrPve8ST9IEP4+JSh/PtEURj/3m/I+dfuHPkgHQz9bQ+U+i36OPq2pQD+kY9Y+2++SPoYMPz+xZMY+YDCVPhc7Pj80trU+YDCVPhc7Pj+rzKQ+2++SPoYMPz8vHpQ+i36OPq2pQD88H4Q+dfuHPkgHQz8Kf2o+JSh/PtEURj/RzU8+JwZrPve8ST8v5Tg+hR1UPjHmTT8fZSY+OA47PnBzUj/Qzhg+PocgPuxEVz8jgRA++VAlPlSeWT8nIQk/PoBEPtkVVz+8DQc/4fVhPj6xVD8oqAM/K+R8PjiBUj9IEP4+h0eKPg6VUD/3m/I+oSiUPi76Tj9bQ+U+aNCbPsu7TT+kY9Y+ZgmhPpbiTD+xZMY+JK+jPnt0TD80trU+JK+jPnt0TD+rzKQ+ZgmhPpbiTD8vHpQ+aNCbPsu7TT88H4Q+oSiUPi76Tj8Kf2o+h0eKPg6VUD/RzU8+K+R8PjiBUj8v5Tg+4fVhPj6xVD8fZSY+PoBEPtkVVz/Qzhg++VAlPlSeWT8jgRA+mKsLQBSidj86rdg/mKsLQBSidj8GeqU/78YNQBSidj/YU9g/kdMPQBSidj8iStc/LcMRQBSidj9Yl9U/P4gTQBSidj9WR9M/aRYVQBSidj9CatA/0mIWQBSidj8bFM0/ZmQXQBSidj8tXMk/HxQYQBSidj9wXMU/M20YQBSidj/RMME/M20YQBSidj9v9rw/HxQYQBSidj/Qyrg/ZmQXQBSidj8Ty7Q/0mIWQBSidj8lE7E/aRYVQBSidj/+vK0/P4gTQBSidj/q36o/LcMRQBSidj/oj6g/kdMPQBSidj8e3aY/78YNQBSidj9o06U/iqwNQL48eT/YU9g/fp8PQDnFez8iStc/2HYRQNUpfj9Yl9U/vSUTQO0sgD9WR9M/a6AUQAIjgT9CatA/jtwVQHLwgT8bFM0/h9EWQKSPgj8tXMk/p3gXQD78gj9wXMU/X80XQEwzgz/RMME/X80XQEwzgz9v9rw/p3gXQD78gj/Qyrg/h9EWQKSPgj8Ty7Q/jtwVQHLwgT8lE7E/a6AUQAIjgT/+vK0/vSUTQO0sgD/q36o/2HYRQNUpfj/oj6g/fp8PQDnFez8e3aY/iqwNQL48eT9o06U/7l8NQCeWez/YU9g/XggPQNEzgD8iStc/U5kQQHF6gj9Yl9U/3QcSQA6PhD9WR9M//UkTQCFjhj9CatA/6VYUQOXphz8bFM0/TCcVQLMYiT8tXMk/drUVQEbniT9wXMU/hv0VQP5Pij/RMME/hv0VQP5Pij9v9rw/drUVQEbniT/Qyrg/TCcVQLMYiT8Ty7Q/6VYUQOXphz8lE7E//UkTQCFjhj/+vK0/3QcSQA6PhD/q36o/U5kQQHF6gj/oj6g/XggPQNEzgD8e3aY/7l8NQCeWez9o06U/nOgMQG5zfT/YU9g/+xwOQJYKgj8iStc/S0APQIAshT9Yl9U/mUoQQJQJiD9WR9M/ozQRQNSNij9CatA/BfgRQK2njD8bFM0/bI8SQHJIjj8tXMk/tvYSQMZkjz9wXMU/ESsTQOf0jz/RMME/ESsTQOf0jz9v9rw/tvYSQMZkjz/Qyrg/bI8SQHJIjj8Ty7Q/BfgRQK2njD8lE7E/ozQRQNSNij/+vK0/mUoQQJQJiD/q36o/S0APQIAshT/oj6g/+xwOQJYKgj8e3aY/nOgMQG5zfT9o06U/QlIMQN2lfj/YU9g/YfQMQNc4gz8iStc/iI0NQIznhj9Yl9U/iRkOQFVFij9WR9M/lJQOQLE6jT9CatA/TPsOQPiyjz8bFM0/5EoPQOmckT8tXMk/MoEPQCnrkj9wXMU/uJwPQJiUkz/RMME/uJwPQJiUkz9v9rw/MoEPQCnrkj/Qyrg/5EoPQOmckT8Ty7Q/TPsOQPiyjz8lE7E/lJQOQLE6jT/+vK0/iRkOQFVFij/q36o/iI0NQIznhj/oj6g/YfQMQNc4gz8e3aY/QlIMQN2lfj9o06U/mKsLQHQPfz/YU9g/mKsLQP2ggz8iStc/mKsLQDWAhz9Yl9U/mKsLQFgKiz9WR9M/mKsLQK4mjj9CatA/mKsLQH6/kD8bFM0/mKsLQKfCkj8tXMk/mKsLQBoilD9wXMU/mKsLQEHUlD/RMME/mKsLQEHUlD9v9rw/mKsLQBoilD/Qyrg/mKsLQKfCkj8Ty7Q/mKsLQH6/kD8lE7E/mKsLQK4mjj/+vK0/mKsLQFgKiz/q36o/mKsLQDWAhz/oj6g/mKsLQP2ggz8e3aY/mKsLQHQPfz9o06U/7QQLQN2lfj/YU9g/zmIKQNc4gz8iStc/p8kJQIznhj9Yl9U/pj0JQFVFij9WR9M/nMIIQLE6jT9CatA/41sIQPiyjz8bFM0/SwwIQOmckT8tXMk//dUHQCnrkj9wXMU/d7oHQJiUkz/RMME/d7oHQJiUkz9v9rw//dUHQCnrkj/Qyrg/SwwIQOmckT8Ty7Q/41sIQPiyjz8lE7E/nMIIQLE6jT/+vK0/pj0JQFVFij/q36o/p8kJQIznhj/oj6g/zmIKQNc4gz8e3aY/7QQLQN2lfj9o06U/k24KQG5zfT/YU9g/NDoJQJYKgj8iStc/5BYIQIAshT9Yl9U/lgwHQJQJiD9WR9M/jCIGQNSNij9CatA/Kl8FQK2njD8bFM0/w8cEQHJIjj8tXMk/eWAEQMZkjz9wXMU/HiwEQOf0jz/RMME/HiwEQOf0jz9v9rw/eWAEQMZkjz/Qyrg/w8cEQHJIjj8Ty7Q/Kl8FQK2njD8lE7E/jCIGQNSNij/+vK0/lgwHQJQJiD/q36o/5BYIQIAshT/oj6g/NDoJQJYKgj8e3aY/k24KQG5zfT9o06U/QfcJQCeWez/YU9g/0U4IQNEzgD8iStc/3b0GQHF6gj9Yl9U/Uk8FQA6PhD9WR9M/Mw0EQCFjhj9CatA/RgADQOXphz8bFM0/5C8CQLMYiT8tXMk/uaEBQEbniT9wXMU/qVkBQP5Pij/RMME/qVkBQP5Pij9v9rw/uaEBQEbniT/Qyrg/5C8CQLMYiT8Ty7Q/RgADQOXphz8lE7E/Mw0EQCFjhj/+vK0/Uk8FQA6PhD/q36o/3b0GQHF6gj/oj6g/0U4IQNEzgD8e3aY/QfcJQCeWez9o06U/paoJQL48eT/YU9g/sbcHQDnFez8iStc/V+AFQNUpfj9Yl9U/cjEEQO0sgD9WR9M/xLYCQAIjgT9CatA/oXoBQHLwgT8bFM0/qIUAQKSPgj8tXMk/EL3/Pz78gj9wXMU/oRP/P0wzgz/RMME/oRP/P0wzgz9v9rw/EL3/Pz78gj/Qyrg/qIUAQKSPgj8Ty7Q/oXoBQHLwgT8lE7E/xLYCQAIjgT/+vK0/cjEEQO0sgD/q36o/V+AFQNUpfj/oj6g/sbcHQDnFez8e3aY/paoJQL48eT9o06U/QJAJQBSidj/YU9g/noMHQBSidj8iStc/ApQFQBSidj9Yl9U/8c4DQBSidj9WR9M/xkACQBSidj9CatA/XfQAQBSidj8bFM0/kuX/PxSidj8tXMk/H4b+PxSidj9wXMU/+NP9PxSidj/RMME/+NP9PxSidj9v9rw/H4b+PxSidj/Qyrg/kuX/PxSidj8Ty7Q/XfQAQBSidj8lE7E/xkACQBSidj/+vK0/8c4DQBSidj/q36o/ApQFQBSidj/oj6g/noMHQBSidj8e3aY/QJAJQBSidj9o06U/paoJQGoHdD/YU9g/sbcHQO9+cT8iStc/V+AFQFMabz9Yl9U/cjEEQE7qbD9WR9M/xLYCQCT+aj9CatA/oXoBQENjaT8bFM0/qIUAQOEkaD8tXMk/EL3/P6xLZz9wXMU/oRP/P5HdZj/RMME/oRP/P5HdZj9v9rw/EL3/P6xLZz/Qyrg/qIUAQOEkaD8Ty7Q/oXoBQENjaT8lE7E/xLYCQCT+aj/+vK0/cjEEQE7qbD/q36o/V+AFQFMabz/oj6g/sbcHQO9+cT8e3aY/paoJQGoHdD9o06U/QfcJQAGucT/YU9g/0U4IQIbcbD8iStc/3b0GQEdPaD9Yl9U/Uk8FQA0mZD9WR9M/Mw0EQOZ9YD9CatA/RgADQF1wXT8bFM0/5C8CQMMSWz8tXMk/uaEBQJt1WT9wXMU/qVkBQCykWD/RMME/qVkBQCykWD9v9rw/uaEBQJt1WT/Qyrg/5C8CQMMSWz8Ty7Q/RgADQF1wXT8lE7E/Mw0EQOZ9YD/+vK0/Uk8FQA0mZD/q36o/3b0GQEdPaD/oj6g/0U4IQIbcbD8e3aY/QfcJQAGucT9o06U/k24KQLrQbz/YU9g/NDoJQPsuaT8iStc/5BYIQCjrYj9Yl9U/lgwHQAAxXT9WR9M/jCIGQIAoWD9CatA/Kl8FQM/0Uz8bFM0/w8cEQESzUD8tXMk/eWAEQJx6Tj9wXMU/HiwEQFlaTT/RMME/HiwEQFlaTT9v9rw/eWAEQJx6Tj/Qyrg/w8cEQESzUD8Ty7Q/Kl8FQM/0Uz8lE7E/jCIGQIAoWD/+vK0/lgwHQAAxXT/q36o/5BYIQCjrYj/oj6g/NDoJQPsuaT8e3aY/k24KQLrQbz9o06U/7QQLQEuebj/YU9g/zmIKQHrSZj8iStc/p8kJQBF1Xz9Yl9U/pj0JQH+5WD9WR9M/nMIIQMbOUj9CatA/41sIQDneTT8bFM0/SwwIQFYKSj8tXMk//dUHQNZtRz9wXMU/d7oHQPgaRj/RMME/d7oHQPgaRj9v9rw//dUHQNZtRz/Qyrg/SwwIQFYKSj8Ty7Q/41sIQDneTT8lE7E/nMIIQMbOUj/+vK0/pj0JQH+5WD/q36o/p8kJQBF1Xz/oj6g/zmIKQHrSZj8e3aY/7QQLQEuebj9o06U/mKsLQLQ0bj/YU9g/mKsLQC0CZj8iStc/mKsLQL5DXj9Yl9U/mKsLQHgvVz9WR9M/mKsLQMz2UD9CatA/mKsLQCzFSz8bFM0/mKsLQNu+Rz8tXMk/mKsLQPX/RD9wXMU/mKsLQKWbQz/RMME/mKsLQKWbQz9v9rw/mKsLQPX/RD/Qyrg/mKsLQNu+Rz8Ty7Q/mKsLQCzFSz8lE7E/mKsLQMz2UD/+vK0/mKsLQHgvVz/q36o/mKsLQL5DXj/oj6g/mKsLQC0CZj8e3aY/mKsLQLQ0bj9o06U/QlIMQEuebj/YU9g/YfQMQHrSZj8iStc/iI0NQBF1Xz9Yl9U/iRkOQH+5WD9WR9M/lJQOQMbOUj9CatA/TPsOQDneTT8bFM0/5EoPQFYKSj8tXMk/MoEPQNZtRz9wXMU/uJwPQPgaRj/RMME/uJwPQPgaRj9v9rw/MoEPQNZtRz/Qyrg/5EoPQFYKSj8Ty7Q/TPsOQDneTT8lE7E/lJQOQMbOUj/+vK0/iRkOQH+5WD/q36o/iI0NQBF1Xz/oj6g/YfQMQHrSZj8e3aY/QlIMQEuebj9o06U/nOgMQLrQbz/YU9g/+xwOQPsuaT8iStc/S0APQCjrYj9Yl9U/mUoQQAAxXT9WR9M/ozQRQIAoWD9CatA/BfgRQM/0Uz8bFM0/bI8SQESzUD8tXMk/tvYSQJx6Tj9wXMU/ESsTQFlaTT/RMME/ESsTQFlaTT9v9rw/tvYSQJx6Tj/Qyrg/bI8SQESzUD8Ty7Q/BfgRQM/0Uz8lE7E/ozQRQIAoWD/+vK0/mUoQQAAxXT/q36o/S0APQCjrYj/oj6g/+xwOQPsuaT8e3aY/nOgMQLrQbz9o06U/7l8NQAGucT/YU9g/XggPQIbcbD8iStc/U5kQQEdPaD9Yl9U/3QcSQA0mZD9WR9M//UkTQOZ9YD9CatA/6VYUQF1wXT8bFM0/TCcVQMMSWz8tXMk/drUVQJt1WT9wXMU/hv0VQCykWD/RMME/hv0VQCykWD9v9rw/drUVQJt1WT/Qyrg/TCcVQMMSWz8Ty7Q/6VYUQF1wXT8lE7E//UkTQOZ9YD/+vK0/3QcSQA0mZD/q36o/U5kQQEdPaD/oj6g/XggPQIbcbD8e3aY/7l8NQAGucT9o06U/iqwNQGoHdD/YU9g/fp8PQO9+cT8iStc/2HYRQFMabz9Yl9U/vSUTQE7qbD9WR9M/a6AUQCT+aj9CatA/jtwVQENjaT8bFM0/h9EWQOEkaD8tXMk/p3gXQKxLZz9wXMU/X80XQJHdZj/RMME/X80XQJHdZj9v9rw/p3gXQKxLZz/Qyrg/h9EWQOEkaD8Ty7Q/jtwVQENjaT8lE7E/a6AUQCT+aj/+vK0/vSUTQE7qbD/q36o/2HYRQFMabz/oj6g/fp8PQO9+cT8e3aY/iqwNQGoHdD9o06U/a3djQGPTEb2yoaI/a3djQGPTEb3+3F4/w5JlQGPTEb1QSKI/ZJ9nQGPTEb2bPqE/AI9pQGPTEb3Ri58/ElRrQGPTEb3PO50/PeJsQGPTEb27Xpo/pS5uQGPTEb2TCJc/OTBvQGPTEb2mUJM/8t9vQGPTEb3pUI8/BjlwQGPTEb1KJYs/BjlwQGPTEb3n6oY/8t9vQGPTEb1Iv4I/OTBvQGPTEb0Xf30/pS5uQGPTEb08D3Y/PeJsQGPTEb3uYm8/ElRrQGPTEb3FqGk/AI9pQGPTEb3BCGU/ZJ9nQGPTEb0to2E/w5JlQGPTEb3Cj18/XXhlQH1R0LxQSKI/UWtnQDmEfrybPqE/q0JpQM+6yrvRi58/kPFqQCuQGjvPO50/PmxsQHOuITy7Xpo/YahtQE8zhDyTCJc/Wp1uQKH/qzymUJM/ekRvQEcmxzzpUI8/MplvQKnp1DxKJYs/MplvQKnp1Dzn6oY/ekRvQEcmxzxIv4I/Wp1uQKH/qzwXf30/YahtQE8zhDw8D3Y/PmxsQHOuITzuYm8/kPFqQCuQGjvFqGk/q0JpQM+6yrvBCGU/UWtnQDmEfrwto2E/XXhlQH1R0LzCj18/wStlQHMkhbxQSKI/MdRmQAtYKDubPqE/JmVoQOuypjzRi58/sNNpQBXtFT3PO50/0BVrQHdvUD27Xpo/vCJsQASkgD2TCJc/H/NsQNqQkz2mUJM/SYFtQBR6oD3pUI8/WcltQIwFpz1KJYs/WcltQIwFpz3n6oY/SYFtQBR6oD1Iv4I/H/NsQNqQkz0Xf30/vCJsQASkgD08D3Y/0BVrQHdvUD3uYm8/sNNpQBXtFT3FqGk/JmVoQOuypjzBCGU/MdRmQAtYKDsto2E/wStlQHMkhbzCj18/b7RkQP/2ErxQSKI/zuhlQE28ijybPqE/HgxnQFubKT3Ri58/bBZoQPGegj3PO50/dgBpQO3iqj27Xpo/2MNpQHaAzD2TCJc/P1tqQM6M5j2mUJM/icJqQBBS+D3pUI8/5fZqQBKqAD5KJYs/5fZqQBKqAD7n6oY/icJqQBBS+D1Iv4I/P1tqQM6M5j0Xf30/2MNpQHaAzD08D3Y/dgBpQO3iqj3uYm8/bBZoQPGegj3FqGk/HgxnQFubKT3BCGU/zuhlQE28ijwto2E/b7RkQP/2ErzCj18/FR5kQKO2jLtQSKI/NMBkQH9M1jybPqE/W1llQM38YD3Ri58/XOVlQPpapj3PO50/Z2BmQL6w1T27Xpo/H8dmQCg1/T2TCJc/txZnQCHqDT6mUJM/BU1nQB5cGD7pUI8/i2hnQJmnHT5KJYs/i2hnQJmnHT7n6oY/BU1nQB5cGD5Iv4I/txZnQCHqDT4Xf30/H8dmQCg1/T08D3Y/Z2BmQL6w1T3uYm8/XOVlQPpapj3FqGk/W1llQM38YD3BCGU/NMBkQH9M1jwto2E/FR5kQKO2jLvCj18/a3djQGXWL7tQSKI/a3djQA1W8DybPqE/a3djQAUSdD3Ri58/a3djQC2rsj3PO50/a3djQIxw5D27Xpo/a3djQMn+Bj6TCJc/a3djQA0YFz6mUJM/a3djQKUTIj7pUI8/a3djQOKkJz5KJYs/a3djQOKkJz7n6oY/a3djQKUTIj5Iv4I/a3djQA0YFz4Xf30/a3djQMn+Bj48D3Y/a3djQIxw5D3uYm8/a3djQC2rsj3FqGk/a3djQAUSdD3BCGU/a3djQA1W8Dwto2E/a3djQGXWL7vCj18/wNBiQKO2jLtQSKI/oS5iQH9M1jybPqE/epVhQM38YD3Ri58/eQlhQPpapj3PO50/b45gQL6w1T27Xpo/tidgQCg1/T2TCJc/HthfQCHqDT6mUJM/0KFfQB5cGD7pUI8/SoZfQJmnHT5KJYs/SoZfQJmnHT7n6oY/0KFfQB5cGD5Iv4I/HthfQCHqDT4Xf30/tidgQCg1/T08D3Y/b45gQL6w1T3uYm8/eQlhQPpapj3FqGk/epVhQM38YD3BCGU/oS5iQH9M1jwto2E/wNBiQKO2jLvCj18/ZjpiQP/2ErxQSKI/BwZhQE28ijybPqE/t+JfQFubKT3Ri58/adheQPGegj3PO50/X+5dQO3iqj27Xpo//SpdQHaAzD2TCJc/lpNcQM6M5j2mUJM/TCxcQBBS+D3pUI8/8fdbQBKqAD5KJYs/8fdbQBKqAD7n6oY/TCxcQBBS+D1Iv4I/lpNcQM6M5j0Xf30//SpdQHaAzD08D3Y/X+5dQO3iqj3uYm8/adheQPGegj3FqGk/t+JfQFubKT3BCGU/BwZhQE28ijwto2E/ZjpiQP/2ErzCj18/FMNhQHMkhbxQSKI/pBpgQAtYKDubPqE/sIleQOuypjzRi58/JhtdQBXtFT3PO50/BtlbQHdvUD27Xpo/GcxaQASkgD2TCJc/t/tZQNqQkz2mUJM/jW1ZQBR6oD3pUI8/fCVZQIwFpz1KJYs/fCVZQIwFpz3n6oY/jW1ZQBR6oD1Iv4I/t/tZQNqQkz0Xf30/GcxaQASkgD08D3Y/BtlbQHdvUD3uYm8/JhtdQBXtFT3FqGk/sIleQOuypjzBCGU/pBpgQAtYKDsto2E/FMNhQHMkhbzCj18/eHZhQH1R0LxQSKI/hINfQDmEfrybPqE/KqxdQM+6yrvRi58/Rf1bQCuQGjvPO50/l4JaQHOuITy7Xpo/dEZZQE8zhDyTCJc/e1FYQKH/qzymUJM/W6pXQEcmxzzpUI8/o1VXQKnp1DxKJYs/o1VXQKnp1Dzn6oY/W6pXQEcmxzxIv4I/e1FYQKH/qzwXf30/dEZZQE8zhDw8D3Y/l4JaQHOuITzuYm8/Rf1bQCuQGjvFqGk/KqxdQM+6yrvBCGU/hINfQDmEfrwto2E/eHZhQH1R0LzCj18/E1xhQGPTEb1QSKI/cU9fQGPTEb2bPqE/1V9dQGPTEb3Ri58/xJpbQGPTEb3PO50/mQxaQGPTEb27Xpo/MMBYQGPTEb2TCJc/nL5XQGPTEb2mUJM/4w5XQGPTEb3pUI8/z7VWQGPTEb1KJYs/z7VWQGPTEb3n6oY/4w5XQGPTEb1Iv4I/nL5XQGPTEb0Xf30/MMBYQGPTEb08D3Y/mQxaQGPTEb3uYm8/xJpbQGPTEb3FqGk/1V9dQGPTEb3BCGU/cU9fQGPTEb0to2E/E1xhQGPTEb3Cj18/eHZhQAh+O71QSKI/hINfQLgFZL2bPqE/KqxdQLYnhb3Ri58/Rf1bQOWnlr3PO50/l4JaQDIJpr27Xpo/dEZZQDfgsr2TCJc/e1FYQEzTvL2mUJM/W6pXQPWcw73pUI8/o1VXQM4Nx71KJYs/o1VXQM4Nx73n6oY/W6pXQPWcw71Iv4I/e1FYQEzTvL0Xf30/dEZZQDfgsr08D3Y/l4JaQDIJpr3uYm8/Rf1bQOWnlr3FqGk/KqxdQLYnhb3BCGU/hINfQLgFZL0to2E/eHZhQAh+O73Cj18/FMNhQI0UYb1QSKI/pBpgQCQWl72bPqE/sIleQB6Au73Ri58/JhtdQO7J3L3PO50/BtlbQB8L+r27Xpo/GcxaQLQ7Cb6TCJc/t/tZQB+yEr6mUJM/jW1ZQLwmGb7pUI8/fCVZQHhsHL5KJYs/fCVZQHhsHL7n6oY/jW1ZQLwmGb5Iv4I/t/tZQB+yEr4Xf30/GcxaQLQ7Cb48D3Y/BtlbQB8L+r3uYm8/JhtdQO7J3L3FqGk/sIleQB6Au73BCGU/pBpgQCQWl70to2E/FMNhQI0UYb3Cj18/ZjpiQAfpfr1QSKI/BwZhQHeCtL2bPqE/t+JfQBGh5r3Ri58/adheQCo5Cr7PO50/X+5dQChbHr67Xpo//SpdQO0pL76TCJc/lpNcQBkwPL6mUJM/TCxcQLoSRb7pUI8/8fdbQMSTSb5KJYs/8fdbQMSTSb7n6oY/TCxcQLoSRb5Iv4I/lpNcQBkwPL4Xf30//SpdQO0pL748D3Y/X+5dQChbHr7uYm8/adheQCo5Cr7FqGk/t+JfQBGh5r3BCGU/BwZhQHeCtL0to2E/ZjpiQAfpfr3Cj18/wNBiQPkHib1QSKI/oS5iQINmx72bPqE/epVhQOUoAb7Ri58/eQlhQC8XHL7PO50/b45gQBHCM767Xpo/tidgQEaER76TCJc/HthfQNPTVr6mUJM/0KFfQNBFYb7pUI8/SoZfQEuRZr5KJYs/SoZfQEuRZr7n6oY/0KFfQNBFYb5Iv4I/HthfQNPTVr4Xf30/tidgQEaER748D3Y/b45gQBHCM77uYm8/eQlhQC8XHL7FqGk/epVhQOUoAb7BCGU/oS5iQINmx70to2E/wNBiQPkHib3Cj18/a3djQLBUjL1QSKI/a3djQOfozb2bPqE/a3djQDPuBb7Ri58/a3djQEg/Ir7PO50/a3djQPghO767Xpo/a3djQHvoT76TCJc/a3djQL8BYL6mUJM/a3djQFf9ar7pUI8/a3djQJSOcL5KJYs/a3djQJSOcL7n6oY/a3djQFf9ar5Iv4I/a3djQL8BYL4Xf30/a3djQHvoT748D3Y/a3djQPghO77uYm8/a3djQEg/Ir7FqGk/a3djQDPuBb7BCGU/a3djQOfozb0to2E/a3djQLBUjL3Cj18/FR5kQPkHib1QSKI/NMBkQINmx72bPqE/W1llQOUoAb7Ri58/XOVlQC8XHL7PO50/Z2BmQBHCM767Xpo/H8dmQEaER76TCJc/txZnQNPTVr6mUJM/BU1nQNBFYb7pUI8/i2hnQEuRZr5KJYs/i2hnQEuRZr7n6oY/BU1nQNBFYb5Iv4I/txZnQNPTVr4Xf30/H8dmQEaER748D3Y/Z2BmQBHCM77uYm8/XOVlQC8XHL7FqGk/W1llQOUoAb7BCGU/NMBkQINmx70to2E/FR5kQPkHib3Cj18/b7RkQAfpfr1QSKI/zuhlQHeCtL2bPqE/HgxnQBGh5r3Ri58/bBZoQCo5Cr7PO50/dgBpQChbHr67Xpo/2MNpQO0pL76TCJc/P1tqQBkwPL6mUJM/icJqQLoSRb7pUI8/5fZqQMSTSb5KJYs/5fZqQMSTSb7n6oY/icJqQLoSRb5Iv4I/P1tqQBkwPL4Xf30/2MNpQO0pL748D3Y/dgBpQChbHr7uYm8/bBZoQCo5Cr7FqGk/HgxnQBGh5r3BCGU/zuhlQHeCtL0to2E/b7RkQAfpfr3Cj18/wStlQI0UYb1QSKI/MdRmQCQWl72bPqE/JmVoQB6Au73Ri58/sNNpQO7J3L3PO50/0BVrQB8L+r27Xpo/vCJsQLQ7Cb6TCJc/H/NsQB+yEr6mUJM/SYFtQLwmGb7pUI8/WcltQHhsHL5KJYs/WcltQHhsHL7n6oY/SYFtQLwmGb5Iv4I/H/NsQB+yEr4Xf30/vCJsQLQ7Cb48D3Y/0BVrQB8L+r3uYm8/sNNpQO7J3L3FqGk/JmVoQB6Au73BCGU/MdRmQCQWl70to2E/wStlQI0UYb3Cj18/XXhlQAh+O71QSKI/UWtnQLgFZL2bPqE/q0JpQLYnhb3Ri58/kPFqQOWnlr3PO50/PmxsQDIJpr27Xpo/YahtQDfgsr2TCJc/Wp1uQEzTvL2mUJM/ekRvQPWcw73pUI8/MplvQM4Nx71KJYs/MplvQM4Nx73n6oY/ekRvQPWcw71Iv4I/Wp1uQEzTvL0Xf30/YahtQDfgsr08D3Y/PmxsQDIJpr3uYm8/kPFqQOWnlr3FqGk/q0JpQLYnhb3BCGU/UWtnQLgFZL0to2E/XXhlQAh+O73Cj18/9KkeQBBSzL/h7TBA9KkeQBBSzL9HVBdATMUgQBBSzL8wwTBA7dEiQBBSzL9VPDBAicEkQBBSzL/wYi9Am4YmQBBSzL/vOi5AxhQoQBBSzL9lzCxALmEpQBBSzL9SIStAwmIqQBBSzL9bRSlAexIrQBBSzL98RSdAj2srQBBSzL+tLyVAj2srQBBSzL98EiNAexIrQBBSzL+s/CBAwmIqQBBSzL/O/B5ALmEpQBBSzL/XIB1AxhQoQBBSzL/DdRtAm4YmQBBSzL85BxpAicEkQBBSzL843xhA7dEiQBBSzL/TBRhATMUgQBBSzL/4gBdA5qogQLsEy78wwTBA2p0iQH7Ayb9VPDBANHUkQDCOyL/wYi9AGSQmQC12x7/vOi5Ax54nQBiAxr9lzCxA6tooQKiyxb9SIStA488pQHcTxb9bRSlAA3cqQNymxL98RSdAu8sqQM5vxL+tLyVAu8sqQM5vxL98EiNAA3cqQNymxL+s/CBA488pQHcTxb/O/B5A6tooQKiyxb/XIB1Ax54nQBiAxr/DdRtAGSQmQC12x785BxpANHUkQDCOyL843xhA2p0iQH7Ayb/TBRhA5qogQLsEy7/4gBdASl4gQAfYyb8wwTBAugYiQElvx79VPDBAr5cjQKkoxb/wYi9AOQYlQAwUw7/vOi5AWUgmQPk/wb9lzCxARVUnQDW5v79SIStAqCUoQGeKvr9bRSlA0rMoQNS7vb98RSdA4vsoQBxTvb+tLyVA4vsoQBxTvb98EiNA0rMoQNS7vb+s/CBAqCUoQGeKvr/O/B5ARVUnQDW5v7/XIB1AWUgmQPk/wb/DdRtAOQYlQAwUw785BxpAr5cjQKkoxb843xhAugYiQElvx7/TBRhASl4gQAfYyb/4gBdA+OYfQGPpyL8wwTBAVxshQISYxb9VPDBApz4iQJp2wr/wYi9A9UgjQIaZv7/vOi5A/zIkQEYVvb9lzCxAYfYkQG77ur9SIStAyI0lQKhaub9bRSlAEvUlQFQ+uL98RSdAbikmQDOut7+tLyVAbikmQDOut798EiNAEvUlQFQ+uL+s/CBAyI0lQKhaub/O/B5AYfYkQG77ur/XIB1A/zIkQEYVvb/DdRtA9UgjQIaZv785BxpApz4iQJp2wr843xhAVxshQISYxb/TBRhA+OYfQGPpyL/4gBdAnlAfQCxQyL8wwTBAvfIfQENqxL9VPDBA5IsgQI+7wL/wYi9A5RchQMVdvb/vOi5A8JIhQGlour9lzCxAqPkhQCPwt79SIStAQEkiQDEGtr9bRSlAjn8iQPG3tL98RSdAFJsiQIIOtL+tLyVAFJsiQIIOtL98EiNAjn8iQPG3tL+s/CBAQEkiQDEGtr/O/B5AqPkhQCPwt7/XIB1A8JIhQGlour/DdRtA5RchQMVdvb85BxpA5IsgQI+7wL843xhAvfIfQENqxL/TBRhAnlAfQCxQyL/4gBdA9KkeQGAbyL8wwTBA9KkeQB0CxL9VPDBA9KkeQOUiwL/wYi9A9KkeQMKYvL/vOi5A9KkeQGx8ub9lzCxA9KkeQJzjtr9SIStA9KkeQHPgtL9bRSlA9KkeQACBs798RSdA9KkeQNnOsr+tLyVA9KkeQNnOsr98EiNA9KkeQACBs7+s/CBA9KkeQHPgtL/O/B5A9KkeQJzjtr/XIB1A9KkeQGx8ub/DdRtA9KkeQMKYvL85BxpA9KkeQOUiwL843xhA9KkeQB0CxL/TBRhA9KkeQGAbyL/4gBdASQMeQCxQyL8wwTBAKmEdQENqxL9VPDBAA8gcQI+7wL/wYi9AAjwcQMVdvb/vOi5A+MAbQGlour9lzCxAP1obQCPwt79SIStApwobQDEGtr9bRSlAWtQaQPG3tL98RSdA07gaQIIOtL+tLyVA07gaQIIOtL98EiNAWtQaQPG3tL+s/CBApwobQDEGtr/O/B5AP1obQCPwt7/XIB1A+MAbQGlour/DdRtAAjwcQMVdvb85BxpAA8gcQI+7wL843xhAKmEdQENqxL/TBRhASQMeQCxQyL/4gBdA72wdQGPpyL8wwTBAkDgcQISYxb9VPDBAQBUbQJp2wr/wYi9A8goaQIaZv7/vOi5A6CAZQEYVvb9lzCxAhl0YQG77ur9SIStAH8YXQKhaub9bRSlA1V4XQFQ+uL98RSdAeioXQDOut7+tLyVAeioXQDOut798EiNA1V4XQFQ+uL+s/CBAH8YXQKhaub/O/B5Ahl0YQG77ur/XIB1A6CAZQEYVvb/DdRtA8goaQIaZv785BxpAQBUbQJp2wr843xhAkDgcQISYxb/TBRhA72wdQGPpyL/4gBdAnfUcQAfYyb8wwTBALU0bQElvx79VPDBAObwZQKkoxb/wYi9Ar00YQAwUw7/vOi5AjwsXQPk/wb9lzCxAov4VQDW5v79SIStAQC4VQGeKvr9bRSlAFqAUQNS7vb98RSdABVgUQBxTvb+tLyVABVgUQBxTvb98EiNAFqAUQNS7vb+s/CBAQC4VQGeKvr/O/B5Aov4VQDW5v7/XIB1AjwsXQPk/wb/DdRtAr00YQAwUw785BxpAObwZQKkoxb843xhALU0bQElvx7/TBRhAnfUcQAfYyb/4gBdAAakcQLsEy78wwTBADbYaQH7Ayb9VPDBAs94YQDCOyL/wYi9Azi8XQC12x7/vOi5AILUVQBiAxr9lzCxA/XgUQKiyxb9SIStABIQTQHcTxb9bRSlA5NwSQNymxL98RSdALIgSQM5vxL+tLyVALIgSQM5vxL98EiNA5NwSQNymxL+s/CBABIQTQHcTxb/O/B5A/XgUQKiyxb/XIB1AILUVQBiAxr/DdRtAzi8XQC12x785BxpAs94YQDCOyL843xhADbYaQH7Ayb/TBRhAAakcQLsEy7/4gBdAnI4cQBBSzL8wwTBA+oEaQBBSzL9VPDBAXpIYQBBSzL/wYi9ATc0WQBBSzL/vOi5AIj8VQBBSzL9lzCxAufITQBBSzL9SIStAJfESQBBSzL9bRSlAbEESQBBSzL98RSdAWOgRQBBSzL+tLyVAWOgRQBBSzL98EiNAbEESQBBSzL+s/CBAJfESQBBSzL/O/B5AufITQBBSzL/XIB1AIj8VQBBSzL/DdRtATc0WQBBSzL85BxpAXpIYQBBSzL843xhA+oEaQBBSzL/TBRhAnI4cQBBSzL/4gBdAAakcQGWfzb8wwTBADbYaQKPjzr9VPDBAs94YQPAV0L/wYi9Azi8XQPMt0b/vOi5AILUVQAgk0r9lzCxA/XgUQHnx0r9SIStABIQTQKqQ079bRSlA5NwSQET90798RSdALIgSQFI01L+tLyVALIgSQFI01L98EiNA5NwSQET907+s/CBABIQTQKqQ07/O/B5A/XgUQHnx0r/XIB1AILUVQAgk0r/DdRtAzi8XQPMt0b85BxpAs94YQPAV0L843xhADbYaQKPjzr/TBRhAAakcQGWfzb/4gBdAnfUcQBrMzr8wwTBALU0bQNc00b9VPDBAObwZQHd707/wYi9Ar00YQBSQ1b/vOi5AjwsXQCdk179lzCxAov4VQOzq2L9SIStAQC4VQLkZ2r9bRSlAFqAUQE3o2r98RSdABVgUQARR27+tLyVABVgUQARR2798EiNAFqAUQE3o2r+s/CBAQC4VQLkZ2r/O/B5Aov4VQOzq2L/XIB1AjwsXQCdk17/DdRtAr00YQBSQ1b85BxpAObwZQHd707843xhALU0bQNc00b/TBRhAnfUcQBrMzr/4gBdA72wdQL26z78wwTBAkDgcQJ0L079VPDBAQBUbQIYt1r/wYi9A8goaQJoK2b/vOi5A6CAZQNqO279lzCxAhl0YQLOo3b9SIStAH8YXQHhJ379bRSlA1V4XQMxl4L98RSdAeioXQO714L+tLyVAeioXQO714L98EiNA1V4XQMxl4L+s/CBAH8YXQHhJ37/O/B5Ahl0YQLOo3b/XIB1A6CAZQNqO27/DdRtA8goaQJoK2b85BxpAQBUbQIYt1r843xhAkDgcQJ0L07/TBRhA72wdQL26z7/4gBdASQMeQPVT0L8wwTBAKmEdQN051L9VPDBAA8gcQJLo17/wYi9AAjwcQFtG27/vOi5A+MAbQLc73r9lzCxAP1obQP6z4L9SIStApwobQO+d4r9bRSlAWtQaQC/s4798RSdA07gaQJ6V5L+tLyVA07gaQJ6V5L98EiNAWtQaQC/s47+s/CBApwobQO+d4r/O/B5AP1obQP6z4L/XIB1A+MAbQLc73r/DdRtAAjwcQFtG2785BxpAA8gcQJLo17843xhAKmEdQN051L/TBRhASQMeQPVT0L/4gBdA9KkeQMCI0L8wwTBA9KkeQASi1L9VPDBA9KkeQDuB2L/wYi9A9KkeQF4L3L/vOi5A9KkeQLQn379lzCxA9KkeQITA4b9SIStA9KkeQK3D479bRSlA9KkeQCAj5b98RSdA9KkeQEjV5b+tLyVA9KkeQEjV5b98EiNA9KkeQCAj5b+s/CBA9KkeQK3D47/O/B5A9KkeQITA4b/XIB1A9KkeQLQn37/DdRtA9KkeQF4L3L85BxpA9KkeQDuB2L843xhA9KkeQASi1L/TBRhA9KkeQMCI0L/4gBdAnlAfQPVT0L8wwTBAvfIfQN051L9VPDBA5IsgQJLo17/wYi9A5RchQFtG27/vOi5A8JIhQLc73r9lzCxAqPkhQP6z4L9SIStAQEkiQO+d4r9bRSlAjn8iQC/s4798RSdAFJsiQJ6V5L+tLyVAFJsiQJ6V5L98EiNAjn8iQC/s47+s/CBAQEkiQO+d4r/O/B5AqPkhQP6z4L/XIB1A8JIhQLc73r/DdRtA5RchQFtG2785BxpA5IsgQJLo17843xhAvfIfQN051L/TBRhAnlAfQPVT0L/4gBdA+OYfQL26z78wwTBAVxshQJ0L079VPDBApz4iQIYt1r/wYi9A9UgjQJoK2b/vOi5A/zIkQNqO279lzCxAYfYkQLOo3b9SIStAyI0lQHhJ379bRSlAEvUlQMxl4L98RSdAbikmQO714L+tLyVAbikmQO714L98EiNAEvUlQMxl4L+s/CBAyI0lQHhJ37/O/B5AYfYkQLOo3b/XIB1A/zIkQNqO27/DdRtA9UgjQJoK2b85BxpApz4iQIYt1r843xhAVxshQJ0L07/TBRhA+OYfQL26z7/4gBdASl4gQBrMzr8wwTBAugYiQNc00b9VPDBAr5cjQHd707/wYi9AOQYlQBSQ1b/vOi5AWUgmQCdk179lzCxARVUnQOzq2L9SIStAqCUoQLkZ2r9bRSlA0rMoQE3o2r98RSdA4vsoQARR27+tLyVA4vsoQARR2798EiNA0rMoQE3o2r+s/CBAqCUoQLkZ2r/O/B5ARVUnQOzq2L/XIB1AWUgmQCdk17/DdRtAOQYlQBSQ1b85BxpAr5cjQHd707843xhAugYiQNc00b/TBRhASl4gQBrMzr/4gBdA5qogQGWfzb8wwTBA2p0iQKPjzr9VPDBANHUkQPAV0L/wYi9AGSQmQPMt0b/vOi5Ax54nQAgk0r9lzCxA6tooQHnx0r9SIStA488pQKqQ079bRSlAA3cqQET90798RSdAu8sqQFI01L+tLyVAu8sqQFI01L98EiNAA3cqQET907+s/CBA488pQKqQ07/O/B5A6tooQHnx0r/XIB1Ax54nQAgk0r/DdRtAGSQmQPMt0b85BxpANHUkQPAV0L843xhA2p0iQKPjzr/TBRhA5qogQGWfzb/4gBdAMgSfPobHG8AQ7hxAMgSfPobHG8B2VANA8d6vPobHG8BfwRxA/0PAPobHG8CEPBxA38DPPobHG8AfYxtAaundPobHG8AeOxpAwVrqPobHG8CUzBhAA770PobHG8CAIRdApcr8PobHG8CJRRVAOCQBP4bHG8CrRRNAiIgCP4bHG8DbLxFAiIgCP4bHG8CqEg9AOCQBP4bHG8Db/AxApcr8PobHG8D8/ApAA770PobHG8AGIQlAwVrqPobHG8DydQdAaundPobHG8BoBwZA38DPPobHG8Bn3wRA/0PAPobHG8ACBgRA8d6vPobHG8AngQNAxAuvPtwgG8BfwRxAZqO+Pr1+GsCEPBxAOF7NPpblGcAfYxtAXdXaPpVZGcAeOxpAzqrmPoreGMCUzBhA6IvwPtJ3GMCAIRdArzP4PjooGMCJRRVArWz9PuzxF8CrRRNANQkAP2bWF8DbLxFANQkAP2bWF8CqEg9ArWz9PuzxF8Db/AxArzP4PjooGMD8/ApA6IvwPtJ3GMAGIQlAzqrmPoreGMDydQdAXdXaPpVZGcBoBwZAOF7NPpblGcBn3wRAZqO+Pr1+GsACBgRAxAuvPtwgG8AngQNA5qasPoKKGsBfwRxAY+q5PiNWGcCEPBxACnLGPtMyGMAfYxtAW+bRPoUoF8AeOxpAWvfbPns+FsCUzBhAvF7kPhl7FcCAIRdA0uHqPrLjFMCJRRVAIlPvPmh8FMCrRRNAp5PxPgxIFMDbLxFAp5PxPgxIFMCqEg9AIlPvPmh8FMDb/AxA0uHqPrLjFMD8/ApAvF7kPhl7FcAGIQlAWvfbPns+FsDydQdAW+bRPoUoF8BoBwZACnLGPtMyGMBn3wRAY+q5PiNWGcACBgRA5qasPoKKGsAngQNAV+yoPjATGsBfwRxATo+yPsBqGMCEPBxAzam7PsvZFsAfYxtAQfzDPkFrFcAeOxpAjUzLPiEpFMCUzBhAn2fRPjUcE8CAIRdA1SLWPtJLEsCJRRVAI13ZPqi9EcCrRRNAAQDbPph1EcDbLxFAAQDbPph1EcCqEg9AI13ZPqi9EcDb/AxA1SLWPtJLEsD8/ApAn2fRPjUcE8AGIQlAjUzLPiEpFMDydQdAQfzDPkFrFcBoBwZAzam7PsvZFsBn3wRATo+yPsBqGMACBgRAV+yoPjATGsAngQNAhjmkPpTGGcBfwRxAfEqpPqDTF8CEPBxAsxOuPkb8FcAfYxtAv3OyPmFNFMAeOxpAEky2PrPSEsCUzBhA04G5PpCWEcCAIRdAmP67PpehEMCJRRVAA7G9Pnf6D8CrRRNAOY2+Pr+lD8DbLxFAOY2+Pr+lD8CqEg9AA7G9Pnf6D8Db/AxAmP67PpehEMD8/ApA04G5PpCWEcAGIQlAEky2PrPSEsDydQdAv3OyPmFNFMBoBwZAsxOuPkb8FcBn3wRAfEqpPqDTF8ACBgRAhjmkPpTGGcAngQNAMgSfPi6sGcBfwRxAMgSfPo2fF8CEPBxAMgSfPvGvFcAfYxtAMgSfPt/qE8AeOxpAMgSfPrRcEsCUzBhAMgSfPkwQEcCAIRdAMgSfPrgOEMCJRRVAMgSfPv9eD8CrRRNAMgSfPusFD8DbLxFAMgSfPusFD8CqEg9AMgSfPv9eD8Db/AxAMgSfPrgOEMD8/ApAMgSfPkwQEcAGIQlAMgSfPrRcEsDydQdAMgSfPt/qE8BoBwZAMgSfPvGvFcBn3wRAMgSfPo2fF8ACBgRAMgSfPi6sGcAngQNA3c6ZPpTGGcBfwRxA572UPqDTF8CEPBxAsfSPPkb8FcAfYxtApZSLPmFNFMAeOxpAUryHPrPSEsCUzBhAkIaEPpCWEcCAIRdAywmCPpehEMCJRRVAYVeAPnf6D8CrRRNAVvZ+Pr+lD8DbLxFAVvZ+Pr+lD8CqEg9AYVeAPnf6D8Db/AxAywmCPpehEMD8/ApAkIaEPpCWEcAGIQlAUryHPrPSEsDydQdApZSLPmFNFMBoBwZAsfSPPkb8FcBn3wRA572UPqDTF8ACBgRA3c6ZPpTGGcAngQNADRyVPjATGsBfwRxAFXmLPsBqGMCEPBxAl16CPsvZFsAfYxtARhh0PkFrFcAeOxpArXdlPiEpFMCUzBhAiUFZPjUcE8CAIRdAHstPPtJLEsCJRRVAgVZJPqi9EcCrRRNAxRBGPph1EcDbLxFAxRBGPph1EcCqEg9AgVZJPqi9EcDb/AxAHstPPtJLEsD8/ApAiUFZPjUcE8AGIQlArXdlPiEpFMDydQdARhh0PkFrFcBoBwZAl16CPsvZFsBn3wRAFXmLPsBqGMACBgRADRyVPjATGsAngQNAfWGRPoKKGsBfwRxAAR6EPiNWGcCEPBxAtCxvPtMyGMAfYxtAEkRYPoUoF8AeOxpAFCJEPns+FsCUzBhAUFMzPhl7FcCAIRdAJE0mPrLjFMCJRRVAg2odPmh8FMCrRRNAeekYPgxIFMDbLxFAeekYPgxIFMCqEg9Ag2odPmh8FMDb/AxAJE0mPrLjFMD8/ApAUFMzPhl7FcAGIQlAFCJEPns+FsDydQdAEkRYPoUoF8BoBwZAtCxvPtMyGMBn3wRAAR6EPiNWGcACBgRAfWGRPoKKGsAngQNAoPyOPtwgG8BfwRxA+8l+Pr1+GsCEPBxAWFRhPpblGcAfYxtADmZGPpVZGcAeOxpALLsuPoreGMCUzBhA9/gaPtJ3GMCAIRdAaqkLPjooGMCJRRVAbTcBPuzxF8CrRRNA49f3PWbWF8DbLxFA49f3PWbWF8CqEg9AbTcBPuzxF8Db/AxAaqkLPjooGMD8/ApA9/gaPtJ3GMAGIQlALLsuPoreGMDydQdADmZGPpVZGcBoBwZAWFRhPpblGcBn3wRA+8l+Pr1+GsACBgRAoPyOPtwgG8AngQNAcimOPobHG8BfwRxAyYh7PobHG8CEPBxACo9cPobHG8AfYxtA9D1APobHG8AeOxpARVsnPobHG8CUzBhAwpQSPobHG8CAIRdAfnsCPobHG8CJRRVAy//uPYbHG8CrRRNAUd3jPYbHG8DbLxFAUd3jPYbHG8CqEg9Ay//uPYbHG8Db/AxAfnsCPobHG8D8/ApAwpQSPobHG8AGIQlARVsnPobHG8DydQdA9D1APobHG8BoBwZACo9cPobHG8Bn3wRAyYh7PobHG8ACBgRAcimOPobHG8AngQNAoPyOPjFuHMBfwRxA+8l+PlAQHcCEPBxAWFRhPnepHcAfYxtADmZGPng1HsAeOxpALLsuPoKwHsCUzBhA9/gaPjsXH8CAIRdAaqkLPtNmH8CJRRVAbTcBPiGdH8CrRRNA49f3Pae4H8DbLxFA49f3Pae4H8CqEg9AbTcBPiGdH8Db/AxAaqkLPtNmH8D8/ApA9/gaPjsXH8AGIQlALLsuPoKwHsDydQdADmZGPng1HsBoBwZAWFRhPnepHcBn3wRA+8l+PlAQHcACBgRAoPyOPjFuHMAngQNAfWGRPosEHcBfwRxAAR6EPuo4HsCEPBxAtCxvPjpcH8AfYxtAEkRYPohmIMAeOxpAFCJEPpJQIcCUzBhAUFMzPvQTIsCAIRdAJE0mPlurIsCJRRVAg2odPqUSI8CrRRNAeekYPgBHI8DbLxFAeekYPgBHI8CqEg9Ag2odPqUSI8Db/AxAJE0mPlurIsD8/ApAUFMzPvQTIsAGIQlAFCJEPpJQIcDydQdAEkRYPohmIMBoBwZAtCxvPjpcH8Bn3wRAAR6EPuo4HsACBgRAfWGRPosEHcAngQNADRyVPt17HcBfwRxAFXmLPk0kH8CEPBxAl16CPkG1IMAfYxtARhh0PswjIsAeOxpArXdlPutlI8CUzBhAiUFZPthyJMCAIRdAHstPPjpDJcCJRRVAgVZJPmTRJcCrRRNAxRBGPnUZJsDbLxFAxRBGPnUZJsCqEg9AgVZJPmTRJcDb/AxAHstPPjpDJcD8/ApAiUFZPthyJMAGIQlArXdlPutlI8DydQdARhh0PswjIsBoBwZAl16CPkG1IMBn3wRAFXmLPk0kH8ACBgRADRyVPt17HcAngQNA3c6ZPnnIHcBfwRxA572UPm27H8CEPBxAsfSPPseSIcAfYxtApZSLPqxBI8AeOxpAUryHPlq8JMCUzBhAkIaEPn34JcCAIRdAywmCPnbtJsCJRRVAYVeAPpaUJ8CrRRNAVvZ+Pk7pJ8DbLxFAVvZ+Pk7pJ8CqEg9AYVeAPpaUJ8Db/AxAywmCPnbtJsD8/ApAkIaEPn34JcAGIQlAUryHPlq8JMDydQdApZSLPqxBI8BoBwZAsfSPPseSIcBn3wRA572UPm27H8ACBgRA3c6ZPnnIHcAngQNAMgSfPt7iHcBfwRxAMgSfPoDvH8CEPBxAMgSfPhzfIcAfYxtAMgSfPi2kI8AeOxpAMgSfPlgyJcCUzBhAMgSfPsF+JsCAIRdAMgSfPlWAJ8CJRRVAMgSfPg4wKMCrRRNAMgSfPiKJKMDbLxFAMgSfPiKJKMCqEg9AMgSfPg4wKMDb/AxAMgSfPlWAJ8D8/ApAMgSfPsF+JsAGIQlAMgSfPlgyJcDydQdAMgSfPi2kI8BoBwZAMgSfPhzfIcBn3wRAMgSfPoDvH8ACBgRAMgSfPt7iHcAngQNAhjmkPnnIHcBfwRxAfEqpPm27H8CEPBxAsxOuPseSIcAfYxtAv3OyPqxBI8AeOxpAEky2Plq8JMCUzBhA04G5Pn34JcCAIRdAmP67PnbtJsCJRRVAA7G9PpaUJ8CrRRNAOY2+Pk7pJ8DbLxFAOY2+Pk7pJ8CqEg9AA7G9PpaUJ8Db/AxAmP67PnbtJsD8/ApA04G5Pn34JcAGIQlAEky2Plq8JMDydQdAv3OyPqxBI8BoBwZAsxOuPseSIcBn3wRAfEqpPm27H8ACBgRAhjmkPnnIHcAngQNAV+yoPt17HcBfwRxATo+yPk0kH8CEPBxAzam7PkG1IMAfYxtAQfzDPswjIsAeOxpAjUzLPutlI8CUzBhAn2fRPthyJMCAIRdA1SLWPjpDJcCJRRVAI13ZPmTRJcCrRRNAAQDbPnUZJsDbLxFAAQDbPnUZJsCqEg9AI13ZPmTRJcDb/AxA1SLWPjpDJcD8/ApAn2fRPthyJMAGIQlAjUzLPutlI8DydQdAQfzDPswjIsBoBwZAzam7PkG1IMBn3wRATo+yPk0kH8ACBgRAV+yoPt17HcAngQNA5qasPosEHcBfwRxAY+q5Puo4HsCEPBxACnLGPjpcH8AfYxtAW+bRPohmIMAeOxpAWvfbPpJQIcCUzBhAvF7kPvQTIsCAIRdA0uHqPlurIsCJRRVAIlPvPqUSI8CrRRNAp5PxPgBHI8DbLxFAp5PxPgBHI8CqEg9AIlPvPqUSI8Db/AxA0uHqPlurIsD8/ApAvF7kPvQTIsAGIQlAWvfbPpJQIcDydQdAW+bRPohmIMBoBwZACnLGPjpcH8Bn3wRAY+q5Puo4HsACBgRA5qasPosEHcAngQNAxAuvPjFuHMBfwRxAZqO+PlAQHcCEPBxAOF7NPnepHcAfYxtAXdXaPng1HsAeOxpAzqrmPoKwHsCUzBhA6IvwPjsXH8CAIRdArzP4PtNmH8CJRRVArWz9PiGdH8CrRRNANQkAP6e4H8DbLxFANQkAP6e4H8CqEg9ArWz9PiGdH8Db/AxArzP4PtNmH8D8/ApA6IvwPjsXH8AGIQlAzqrmPoKwHsDydQdAXdXaPng1HsBoBwZAOF7NPnepHcBn3wRAZqO+PlAQHcACBgRAxAuvPjFuHMAngQNAnat8vz36+79ipO4+nat8vz36+79VXoc9PT50vz36+7/aPu0+tgtsvz36+78EGOk+R01kvz36+7/cTOI+ATldvz36+7/UDNk+VQBXvz36+7+DmM0+tc5Rvz36+7/nP8A+ZMhNvz36+78wYLE+fglLvz36+789YaE+LqVJvz36+7/AspA+LqVJvz36+79ukn8+fglLvz36+791NV4+ZMhNvz36+7+PNz4+tc5Rvz36+78heCA+VQBXvz36+7/oxgU+ATldvz36+7+NvN09R01kvz36+79tvLg9tgtsvz36+7/Pj509PT50vz36+7919Iw91Kd0v+is+r/aPu0+A9xsv6to+b8EGOk+mn5lv102+L/cTOI+CMNev1oe97/UDNk+T9hYv0Uo9r+DmM0+wudTv9Va9b/nP8A+3xNQv6S79L8wYLE+X3dNvwlP9L89YaE+gSRMv/wX9L/AspA+gSRMv/wX9L9ukn8+X3dNvwlP9L91NV4+3xNQv6S79L+PNz4+wudTv9Va9b8heCA+T9hYv0Uo9r/oxgU+CMNev1oe97+NvN09mn5lv102+L9tvLg9A9xsv6to+b/Pj5091Kd0v+is+r919Iw9Q9p1vzSA+b/aPu0+hDhvv3YX978EGOk+sfRov9fQ9L/cTOI+iTpjvzq88r/UDNk+CTJevyfo8L+DmM0+WP5Zv2Jh77/nP8A+zbxWv5Uy7r8wYLE+JYRUvwFk7b89YaE+4mNTv0r77L/AspA+4mNTv0r77L9ukn8+JYRUvwFk7b91NV4+zbxWv5Uy7r+PNz4+WP5Zv2Jh778heCA+CTJevyfo8L/oxgU+iTpjvzq88r+NvN09sfRov9fQ9L9tvLg9hDhvv3YX97/Pj509Q9p1vzSA+b919Iw9ird3v5CR+L/aPu0+D+Zyv7FA9b8EGOk+z1huv8ge8r/cTOI+li9qv7NB77/UDNk+b4dmv3S97L+DmM0+5nljv5uj6r/nP8A+TBxhv9UC6b8wYLE+JH9fv4Hm5789YaE+ta1ev2BW57/AspA+ta1ev2BW579ukn8+JH9fv4Hm5791NV4+TBxhv9UC6b+PNz4+5nljv5uj6r8heCA+b4dmv3S97L/oxgU+li9qv7NB77+NvN09z1huv8ge8r9tvLg9D+Zyv7FA9b/Pj509ird3v5CR+L919Iw98xB6v1n497/aPu0+eIh3v3AS9L8EGOk+3CN1v7xj8L/cTOI+1/Nyv/MF7b/UDNk+rQdxv5YQ6r+DmM0+zGxvv1CY57/nP8A+ai5uv16u5b8wYLE+NVVtvx9g5L89YaE+Gudsv6+247/AspA+Gudsv6+2479ukn8+NVVtvx9g5L91NV4+ai5uv16u5b+PNz4+zGxvv1CY578heCA+rQdxv5YQ6r/oxgU+1/Nyv/MF7b+NvN093CN1v7xj8L9tvLg9eIh3v3AS9L/Pj5098xB6v1n497919Iw9nat8v47D97/aPu0+nat8v0qq878EGOk+nat8vxLL77/cTOI+nat8v/BA7L/UDNk+nat8v5ok6b+DmM0+nat8v8mL5r/nP8A+nat8v6GI5L8wYLE+nat8vy4p4789YaE+nat8vwZ34r/AspA+nat8vwZ34r9ukn8+nat8vy4p4791NV4+nat8v6GI5L+PNz4+nat8v8mL5r8heCA+nat8v5ok6b/oxgU+nat8v/BA7L+NvN09nat8vxLL779tvLg9nat8v0qq87/Pj509nat8v47D97919Iw9R0Z/v1n497/aPu0+YeeAv3AS9L8EGOk+rxmCv7xj8L/cTOI+sjGDv/MF7b/UDNk+xyeEv5YQ6r+DmM0+N/WEv1CY57/nP8A+aJSFv16u5b8wYLE+AwGGvx9g5L89YaE+EDiGv6+247/AspA+EDiGv6+2479ukn8+AwGGvx9g5L91NV4+aJSFv16u5b+PNz4+N/WEv1CY578heCA+xyeEv5YQ6r/oxgU+sjGDv/MF7b+NvN09rxmCv7xj8L9tvLg9YeeAv3AS9L/Pj509R0Z/v1n497919Iw92M+Av5CR+L/aPu0+ljiDv7FA9b8EGOk+NX+Fv8ge8r/cTOI+0pOHv7NB77/UDNk+5WeJv3S97L+DmM0+qu6Kv5uj6r/nP8A+dx2Mv9UC6b8wYLE+C+yMv4Hm5789YaE+wlSNv2BW57/AspA+wlSNv2BW579ukn8+C+yMv4Hm5791NV4+dx2Mv9UC6b+PNz4+qu6Kv5uj6r8heCA+5WeJv3S97L/oxgU+0pOHv7NB77+NvN09NX+Fv8ge8r9tvLg9ljiDv7FA9b/Pj5092M+Av5CR+L919Iw9fL6BvzSA+b/aPu0+Ww+Fv3YX978EGOk+RDGIv9fQ9L/cTOI+WQ6Lvzq88r/UDNk+mJKNvyfo8L+DmM0+cayPv2Jh77/nP8A+N02Rv5Uy7r8wYLE+i2mSvwFk7b89YaE+rPmSv0r77L/AspA+rPmSv0r77L9ukn8+i2mSvwFk7b91NV4+N02Rv5Uy7r+PNz4+cayPv2Jh778heCA+mJKNvyfo8L/oxgU+WQ6Lvzq88r+NvN09RDGIv9fQ9L9tvLg9Ww+Fv3YX97/Pj509fL6BvzSA+b919Iw9s1eCv+is+r/aPu0+nD2Gv6to+b8EGOk+UOyJv102+L/cTOI+GUqNv1oe97/UDNk+dj+Qv0Uo9r+DmM0+vLeSv9Va9b/nP8A+rqGUv6S79L8wYLE+7e+VvwlP9L89YaE+XZmWv/wX9L/AspA+XZmWv/wX9L9ukn8+7e+VvwlP9L91NV4+rqGUv6S79L+PNz4+vLeSv9Va9b8heCA+dj+Qv0Uo9r/oxgU+GUqNv1oe97+NvN09UOyJv102+L9tvLg9nD2Gv6to+b/Pj509s1eCv+is+r919Iw9foyCvz36+7/aPu0+wqWGvz36+78EGOk++oSKvz36+7/cTOI+HA+Ovz36+7/UDNk+ciuRvz36+7+DmM0+Q8STvz36+7/nP8A+a8eVvz36+78wYLE+3iaXvz36+789YaE+BtmXvz36+7/AspA+BtmXvz36+79ukn8+3iaXvz36+791NV4+a8eVvz36+7+PNz4+Q8STvz36+78heCA+ciuRvz36+7/oxgU+HA+Ovz36+7+NvN09+oSKvz36+79tvLg9wqWGvz36+7/Pj509foyCvz36+7919Iw9s1eCv5NH/b/aPu0+nD2Gv9CL/r8EGOk+UOyJvx6+/7/cTOI+GUqNvxBrAMDUDNk+dj+QvxvmAMCDmM0+vLeSv9NMAcDnP8A+rqGUv2ycAcAwYLE+7e+Vv7nSAcA9YaE+XZmWv0DuAcDAspA+XZmWv0DuAcBukn8+7e+Vv7nSAcB1NV4+rqGUv2ycAcCPNz4+vLeSv9NMAcAheCA+dj+QvxvmAMDoxgU+GUqNvxBrAMCNvN09UOyJvx6+/79tvLg9nD2Gv9CL/r/Pj509s1eCv5NH/b919Iw9fL6Bv0d0/r/aPu0+Ww+Fv4JuAMAEGOk+RDGIv9KRAcDcTOI+WQ6LvyGcAsDUDNk+mJKNvyqGA8CDmM0+cayPv4xJBMDnP8A+N02Rv/PgBMAwYLE+i2mSvz1IBcA9YaE+rPmSv5l8BcDAspA+rPmSv5l8BcBukn8+i2mSvz1IBcB1NV4+N02Rv/PgBMCPNz4+cayPv4xJBMAheCA+mJKNvyqGA8DoxgU+WQ6LvyGcAsCNvN09RDGIv9KRAcBtvLg9Ww+Fv4JuAMDPj509fL6Bv0d0/r919Iw92M+Av+ti/7/aPu0+ljiDv+VZAcAEGOk+NX+Fv9rqAsDcTOI+0pOHv2RZBMDUDNk+5WeJv4SbBcCDmM0+qu6Kv3CoBsDnP8A+dx2Mv9N4B8AwYLE+C+yMv/0GCMA9YaE+wlSNvw1PCMDAspA+wlSNvw1PCMBukn8+C+yMv/0GCMB1NV4+dx2Mv9N4B8CPNz4+qu6Kv3CoBsAheCA+5WeJv4SbBcDoxgU+0pOHv2RZBMCNvN09NX+Fv9rqAsBtvLg9ljiDv+VZAcDPj5092M+Av+ti/7919Iw9R0Z/vyL8/7/aPu0+YeeAvwXxAcAEGOk+rxmCv1/IA8DcTOI+sjGDv0R3BcDUDNk+xyeEv/LxBsCDmM0+N/WEvxYuCMDnP8A+aJSFvw4jCcAwYLE+AwGGvy7KCcA9YaE+EDiGv+YeCsDAspA+EDiGv+YeCsBukn8+AwGGvy7KCcB1NV4+aJSFvw4jCcCPNz4+N/WEvxYuCMAheCA+xyeEv/LxBsDoxgU+sjGDv0R3BcCNvN09rxmCv1/IA8BtvLg9YeeAvwXxAcDPj509R0Z/vyL8/7919Iw9nat8v3cYAMDaPu0+nat8vxglAsAEGOk+nat8v7QUBMDcTOI+nat8v8bZBcDUDNk+nat8v/FnB8CDmM0+nat8v1m0CMDnP8A+nat8v+21CcAwYLE+nat8v6dlCsA9YaE+nat8v7q+CsDAspA+nat8v7q+CsBukn8+nat8v6dlCsB1NV4+nat8v+21CcCPNz4+nat8v1m0CMAheCA+nat8v/FnB8DoxgU+nat8v8bZBcCNvN09nat8v7QUBMBtvLg9nat8vxglAsDPj509nat8v3cYAMB19Iw98xB6vyL8/7/aPu0+eIh3vwXxAcAEGOk+3CN1v1/IA8DcTOI+1/Nyv0R3BcDUDNk+rQdxv/LxBsCDmM0+zGxvvxYuCMDnP8A+ai5uvw4jCcAwYLE+NVVtvy7KCcA9YaE+Gudsv+YeCsDAspA+Gudsv+YeCsBukn8+NVVtvy7KCcB1NV4+ai5uvw4jCcCPNz4+zGxvvxYuCMAheCA+rQdxv/LxBsDoxgU+1/Nyv0R3BcCNvN093CN1v1/IA8BtvLg9eIh3vwXxAcDPj5098xB6vyL8/7919Iw9ird3v+ti/7/aPu0+D+Zyv+VZAcAEGOk+z1huv9rqAsDcTOI+li9qv2RZBMDUDNk+b4dmv4SbBcCDmM0+5nljv3CoBsDnP8A+TBxhv9N4B8AwYLE+JH9fv/0GCMA9YaE+ta1evw1PCMDAspA+ta1evw1PCMBukn8+JH9fv/0GCMB1NV4+TBxhv9N4B8CPNz4+5nljv3CoBsAheCA+b4dmv4SbBcDoxgU+li9qv2RZBMCNvN09z1huv9rqAsBtvLg9D+Zyv+VZAcDPj509ird3v+ti/7919Iw9Q9p1v0d0/r/aPu0+hDhvv4JuAMAEGOk+sfRov9KRAcDcTOI+iTpjvyGcAsDUDNk+CTJevyqGA8CDmM0+WP5Zv4xJBMDnP8A+zbxWv/PgBMAwYLE+JYRUvz1IBcA9YaE+4mNTv5l8BcDAspA+4mNTv5l8BcBukn8+JYRUvz1IBcB1NV4+zbxWv/PgBMCPNz4+WP5Zv4xJBMAheCA+CTJevyqGA8DoxgU+iTpjvyGcAsCNvN09sfRov9KRAcBtvLg9hDhvv4JuAMDPj509Q9p1v0d0/r919Iw91Kd0v5NH/b/aPu0+A9xsv9CL/r8EGOk+mn5lvx6+/7/cTOI+CMNevxBrAMDUDNk+T9hYvxvmAMCDmM0+wudTv9NMAcDnP8A+3xNQv2ycAcAwYLE+X3dNv7nSAcA9YaE+gSRMv0DuAcDAspA+gSRMv0DuAcBukn8+X3dNv7nSAcB1NV4+3xNQv2ycAcCPNz4+wudTv9NMAcAheCA+T9hYvxvmAMDoxgU+CMNevxBrAMCNvN09mn5lvx6+/79tvLg9A9xsv9CL/r/Pj5091Kd0v5NH/b919Iw9ffjgvqy4/ztOYMI+ffjgvqy4/zsYBqS+rnnDvqy4/zuh7r8+1simvqy4/zupqrg+T66Lvqy4/zskx6w+uM5lvqy4/zsWl5w+BUI6vqy4/zuIi4g+n+YVvqy4/zvrYGI+0nTzvay4/zvsUS4+PgTNvay4/zszq+w96oe5vay4/zuVy2896oe5vay4/zvuhEE6PgTNvay4/zu+hGa90nTzvay4/zsEO+O9n+YVvqy4/zuBrCW+BUI6vqy4/zumYlS+uM5lvqy4/zvBeXy+T66Lvqy4/zvubI6+1simvqy4/ztzUJq+rnnDvqy4/ztrlKG+PuvEvm3D0Tyh7r8+4qGpvinPLz2pqrg+89qPvibQcj0kx6w+5JRwvmQImD0Wl5w+2SlHvqvysj2Ii4g+/ZUkvvVqyT3rYGI+xcoJvlnU2j3sUS4+lgbvvUG15j0zq+w9Zn7cvby67D2Vy289Zn7cvby67D3uhEE6lgbvvUG15j2+hGa9xcoJvlnU2j0EO+O9/ZUkvvVqyT2BrCW+2SlHvqvysj2mYlS+5JRwvmQImD3BeXy+89qPvibQcj3ubI6+4qGpvinPLz1zUJq+PuvEvm3D0TxrlKG+whvJvh6pKj2h7r8+p+WxvlPJmD2pqrg+RPibvsmC2D0kx6w+tuyHvvlhCT4Wl5w+8J1svgT7Ij6Ii4g+GDRPvsRZOD7rYGI+S2k4vv/oSD7sUS4+sdwovhI1VD4zq+w93/ogvhvvWT6Vy2893/ogvhvvWT7uhEE6sdwovhI1VD6+hGa9S2k4vv/oSD4EO+O9GDRPvsRZOD6BrCW+8J1svgT7Ij6mYlS+tuyHvvlhCT7BeXy+RPibvsmC2D3ubI6+p+WxvlPJmD1zUJq+whvJvh6pKj1rlKG+PKLPvvPcXj2h7r8+C8W+vuRGzD2pqrg+rtauvjj+ET4kx6w+Y0agvlMVOj4Wl5w+3nmTvtBQXT6Ii4g+fsqIvqi6ej7rYGI+4IKAvrvCiD7sUS4+rrl1vgiJkD4zq+w9pf9vvvF5lD6Vy289pf9vvvF5lD7uhEE6rrl1vgiJkD6+hGa94IKAvrvCiD4EO+O9fsqIvqi6ej6BrCW+3nmTvtBQXT6mYlS+Y0agvlMVOj7BeXy+rtauvjj+ET7ubI6+C8W+vuRGzD1zUJq+PKLPvvPcXj1rlKG+KdvXvocwgD2h7r8+e/3OvvpV7T2pqrg+W53Gvto4Kj4kx6w+R/W+vtxZWT4Wl5w+tTq4vnRigT6Ii4g+o5yyvmKskj7rYGI+SkKuvv4RoD7sUS4+EEqrvrs1qT4zq+w9scipvsfXrT6Vy289scipvsfXrT7uhEE6EEqrvrs1qT6+hGa9SkKuvv4RoD4EO+O9o5yyvmKskj6BrCW+tTq4vnRigT6mYlS+R/W+vtxZWT7BeXy+W53Gvto4Kj7ubI6+e/3OvvpV7T1zUJq+KdvXvocwgD1rlKG+ffjgvsj2hT2h7r8+ffjgvii6+D2pqrg+ffjgviKSMj4kx6w+ffjgvgggZD4Wl5w+ffjgvl7Whz6Ii4g+ffjgvhEEmj7rYGI+ffjgviwaqD7sUS4+ffjgvlG2sT4zq+w9ffjgvmaVtj6Vy289ffjgvmaVtj7uhEE6ffjgvlG2sT6+hGa9ffjgviwaqD4EO+O9ffjgvhEEmj6BrCW+ffjgvl7Whz6mYlS+ffjgvgggZD7BeXy+ffjgviKSMj7ubI6+ffjgvii6+D1zUJq+ffjgvsj2hT1rlKG+0hXqvocwgD2h7r8+gPPyvvpV7T2pqrg+oFP7vto4Kj4kx6w+2n0Bv9xZWT4Wl5w+I9sEv3RigT6Ii4g+LKoHv2Kskj7rYGI+WNcJv/4RoD7sUS4+dVMLv7s1qT4zq+w9JRQMv8fXrT6Vy289JRQMv8fXrT7uhEE6dVMLv7s1qT6+hGa9WNcJv/4RoD4EO+O9LKoHv2Kskj6BrCW+I9sEv3RigT6mYlS+2n0Bv9xZWT7BeXy+oFP7vto4Kj7ubI6+gPPyvvpV7T1zUJq+0hXqvocwgD1rlKG+v07yvvPcXj2h7r8++JUBv+RGzD2pqrg+Jo0Jvzj+ET4kx6w+TNUQv1MVOj4Wl5w+jjsXv9BQXT6Ii4g+PpMcv6i6ej7rYGI+Dbcgv7vCiD7sUS4+EoojvwiJkD4zq+w9lPgkv/F5lD6Vy289lPgkv/F5lD7uhEE6EoojvwiJkD6+hGa9Dbcgv7vCiD4EO+O9PpMcv6i6ej6BrCW+jjsXv9BQXT6mYlS+TNUQv1MVOj7BeXy+Jo0Jvzj+ET7ubI6++JUBv+RGzD1zUJq+v07yvvPcXj1rlKG+OdX4vh6pKj2h7r8+qgUIv1PJmD2pqrg+W/wSv8mC2D0kx6w+IgIdv/lhCT4Wl5w+AdElvwT7Ij6Ii4g+dystv8RZOD7rYGI+K94yv//oSD7sUS4+UcE2vxI1VD4zq+w9xrk4vxvvWT6Vy289xrk4vxvvWT7uhEE6UcE2vxI1VD6+hGa9K94yv//oSD4EO+O9dystv8RZOD6BrCW+AdElvwT7Ij6mYlS+IgIdv/lhCT7BeXy+W/wSv8mC2D3ubI6+qgUIv1PJmD1zUJq+OdX4vh6pKj1rlKG+vQX9vm3D0Tyh7r8+jScMvynPLz2pqrg+BAsZvybQcj0kx6w+RNMkv2QImD0Wl5w+By4vv6vysj2Ii4g+/tI3v/VqyT3rYGI+zIU+v1nU2j3sUS4+qxdDv0G15j0zq+w9sWhFv7y67D2Vy289sWhFv7y67D3uhEE6qxdDv0G15j2+hGa9zIU+v1nU2j0EO+O9/tI3v/VqyT2BrCW+By4vv6vysj2mYlS+RNMkv2QImD3BeXy+BAsZvybQcj3ubI6+jScMvynPLz1zUJq+vQX9vm3D0TxrlKG+TXf+vqy4/zuh7r8+EpQNv6y4/zupqrg+ViEbv6y4/zskx6w+z4Qnv6y4/zsWl5w+/Gcyv6y4/zuIi4g+1n47v6y4/zvrYGI+44lCv6y4/zvsUS4+9ldHv6y4/zszq+w9gMdJv6y4/zuVy289gMdJv6y4/zvuhEE69ldHv6y4/zu+hGa944lCv6y4/zsEO+O91n47v6y4/zuBrCW+/Gcyv6y4/zumYlS+z4Qnv6y4/zvBeXy+ViEbv6y4/zvubI6+EpQNv6y4/ztzUJq+TXf+vqy4/ztrlKG+vQX9vi7OI7yh7r8+jScMv/3B37ypqrg+BAsZv/zhMr0kx6w+RNMkv50icL0Wl5w+By4vv5X7kr2Ii4g+/tI3v99zqb3rYGI+zIU+v0Pdur3sUS4+qxdDvyu+xr0zq+w9sWhFv6bDzL2Vy289sWhFv6bDzL3uhEE6qxdDvyu+xr2+hGa9zIU+v0Pdur0EO+O9/tI3v99zqb2BrCW+By4vv5X7kr2mYlS+RNMkv50icL3BeXy+BAsZv/zhMr3ubI6+jScMv/3B37xzUJq+vQX9vi7OI7xrlKG+OdX4vud11byh7r8+qgUIv3ukcb2pqrg+W/wSv7OLuL0kx6w+IgIdv93M8r0Wl5w+AdElv3r/Er6Ii4g+dystvzpeKL7rYGI+K94yv3XtOL7sUS4+UcE2v4g5RL4zq+w9xrk4v5HzSb6Vy289xrk4v5HzSb7uhEE6UcE2v4g5RL6+hGa9K94yv3XtOL4EO+O9dystvzpeKL6BrCW+AdElv3r/Er6mYlS+IgIdv93M8r3BeXy+W/wSv7OLuL3ubI6+qgUIv3ukcb1zUJq+OdX4vud11bxrlKG+v07yvsnuHr2h7r8++JUBv85PrL2pqrg+Jo0Jv64CAr4kx6w+TNUQv8kZKr4Wl5w+jjsXv0ZVTb6Ii4g+PpMcvx6/ar7rYGI+Dbcgv/XEgL7sUS4+Eoojv0KLiL4zq+w9lPgkvyt8jL6Vy289lPgkvyt8jL7uhEE6Eoojv0KLiL6+hGa9Dbcgv/XEgL4EO+O9PpMcvx6/ar6BrCW+jjsXv0ZVTb6mYlS+TNUQv8kZKr7BeXy+Jo0Jv64CAr7ubI6++JUBv85PrL1zUJq+v07yvsnuHr1rlKG+0hXqvuRyQL2h7r8+gPPyvuRezb2pqrg+oFP7vlA9Gr4kx6w+2n0Bv1JeSb4Wl5w+I9sEv13Jcr6Ii4g+LKoHv5yuir7rYGI+WNcJvzgUmL7sUS4+dVMLv/U3ob4zq+w9JRQMvwHapb6Vy289JRQMvwHapb7uhEE6dVMLv/U3ob6+hGa9WNcJvzgUmL4EO+O9LKoHv5yuir6BrCW+I9sEv13Jcr6mYlS+2n0Bv1JeSb7BeXy+oFP7vlA9Gr7ubI6+gPPyvuRezb1zUJq+0hXqvuRyQL1rlKG+ffjgvmX/S72h7r8+ffjgvhLD2L2pqrg+ffjgvpiWIr4kx6w+ffjgvn4kVL4Wl5w+ffjgvjGxf76Ii4g+ffjgvksGkr7rYGI+ffjgvmYcoL7sUS4+ffjgvou4qb4zq+w9ffjgvqCXrr6Vy289ffjgvqCXrr7uhEE6ffjgvou4qb6+hGa9ffjgvmYcoL4EO+O9ffjgvksGkr6BrCW+ffjgvjGxf76mYlS+ffjgvn4kVL7BeXy+ffjgvpiWIr7ubI6+ffjgvhLD2L1zUJq+ffjgvmX/S71rlKG+KdvXvuRyQL2h7r8+e/3OvuRezb2pqrg+W53GvlA9Gr4kx6w+R/W+vlJeSb4Wl5w+tTq4vl3Jcr6Ii4g+o5yyvpyuir7rYGI+SkKuvjgUmL7sUS4+EEqrvvU3ob4zq+w9scipvgHapb6Vy289scipvgHapb7uhEE6EEqrvvU3ob6+hGa9SkKuvjgUmL4EO+O9o5yyvpyuir6BrCW+tTq4vl3Jcr6mYlS+R/W+vlJeSb7BeXy+W53GvlA9Gr7ubI6+e/3OvuRezb1zUJq+KdvXvuRyQL1rlKG+PKLPvsnuHr2h7r8+C8W+vs5PrL2pqrg+rtauvq4CAr4kx6w+Y0agvskZKr4Wl5w+3nmTvkZVTb6Ii4g+fsqIvh6/ar7rYGI+4IKAvvXEgL7sUS4+rrl1vkKLiL4zq+w9pf9vvit8jL6Vy289pf9vvit8jL7uhEE6rrl1vkKLiL6+hGa94IKAvvXEgL4EO+O9fsqIvh6/ar6BrCW+3nmTvkZVTb6mYlS+Y0agvskZKr7BeXy+rtauvq4CAr7ubI6+C8W+vs5PrL1zUJq+PKLPvsnuHr1rlKG+whvJvud11byh7r8+p+Wxvnukcb2pqrg+RPibvrOLuL0kx6w+tuyHvt3M8r0Wl5w+8J1svnr/Er6Ii4g+GDRPvjpeKL7rYGI+S2k4vnXtOL7sUS4+sdwovog5RL4zq+w93/ogvpHzSb6Vy2893/ogvpHzSb7uhEE6sdwovog5RL6+hGa9S2k4vnXtOL4EO+O9GDRPvjpeKL6BrCW+8J1svnr/Er6mYlS+tuyHvt3M8r3BeXy+RPibvrOLuL3ubI6+p+Wxvnukcb1zUJq+whvJvud11bxrlKG+PuvEvi7OI7yh7r8+4qGpvv3B37ypqrg+89qPvvzhMr0kx6w+5JRwvp0icL0Wl5w+2SlHvpX7kr2Ii4g+/ZUkvt9zqb3rYGI+xcoJvkPdur3sUS4+lgbvvSu+xr0zq+w9Zn7cvabDzL2Vy289Zn7cvabDzL3uhEE6lgbvvSu+xr2+hGa9xcoJvkPdur0EO+O9/ZUkvt9zqb2BrCW+2SlHvpX7kr2mYlS+5JRwvp0icL3BeXy+89qPvvzhMr3ubI6+4qGpvv3B37xzUJq+PuvEvi7OI7xrlKG+IlUeQH43JDwzdbQ/IlUeQH43JDwytzU//AQiQH43JDzH2LM/F5slQH43JDzJB7I/aP4oQH43JDzoDq8/RhcsQH43JDzlAqs/EdAuQH43JDwBAKY/xxUxQH43JDw9KaA/i9gyQH43JDxdp5k/Dww0QH43JDzSp5I/8qc0QH43JDx8W4s/8qc0QH43JDxQ9YM/Dww0QH43JDzyUXk/i9gyQH43JDzeUms/xxUxQH43JDweT14/EdAuQH43JDyVoVI/RhcsQH43JDzOm0g/aP4oQH43JDzHg0A/F5slQH43JDwFkjo//AQiQH43JDwJ8DY/ytYhQAHx4zzH2LM/9T8lQPTlOD3JB7I/03goQPHmez3oDq8/42orQMmTnD3lAqs/lAEuQBB+tz0BAKY/0iowQFr2zT09KaA/hdcxQL5f3z1dp5k//fsyQKZA6z3Sp5I/PpAzQCFG8T18W4s/PpAzQCFG8T1Q9YM//fsyQKZA6z3yUXk/hdcxQL5f3z3eUms/0iowQFr2zT0eT14/lAEuQBB+tz2VoVI/42orQMmTnD3Om0g/03goQPHmez3Hg0A/9T8lQPTlOD0Fkjo/ytYhQAHx4zwJ8DY/uVAhQOm/Mz3H2LM/fDckQLhUnT3JB7I/KfUmQC4O3T3oDq8/m3YpQKynCz7lAqs/UqorQLdAJT4BAKY/8IAtQHefOj49KaA/ne0uQLIuSz5dp5k/ZuYvQMV6Vj7Sp5I/g2QwQM40XD58W4s/g2QwQM40XD5Q9YM/ZuYvQMV6Vj7yUXk/ne0uQLIuSz7eUms/8IAtQHefOj4eT14/UqorQLdAJT6VoVI/m3YpQKynCz7Om0g/KfUmQC4O3T3Hg0A/fDckQLhUnT0Fkjo/uVAhQOm/Mz0J8DY/6n8gQL7zZz3H2LM/kJsiQEnS0D3JB7I/XJkkQOtDFD7oDq8/ZWsmQAZbPD7lAqs/9gQoQIOWXz4BAKY/4lopQFsAfT49KaA/1WMqQJTliT5dp5k/lxgrQOGrkT7Sp5I/N3QrQMqclT58W4s/N3QrQMqclT5Q9YM/lxgrQOGrkT7yUXk/1WMqQJTliT7eUms/4lopQFsAfT4eT14/9gQoQIOWXz6VoVI/ZWsmQAZbPD7Om0g/XJkkQOtDFD7Hg0A/kJsiQEnS0D0Fkjo/6n8gQL7zZz0J8DY/zHgfQOy7hD3H2LM/gpQgQF/h8T3JB7I/hqAhQI1+LD7oDq8/iJUiQI+fWz7lAqs/22wjQE2Fgj4BAKY/nSAkQDvPkz49KaA/6KskQNc0oT5dp5k/7wolQJRYqj7Sp5I/GzslQKD6rj58W4s/GzslQKD6rj5Q9YM/7wolQJRYqj7yUXk/6KskQNc0oT7eUms/nSAkQDvPkz4eT14/22wjQE2Fgj6VoVI/iJUiQI+fWz7Om0g/hqAhQI1+LD7Hg0A/gpQgQF/h8T0Fkjo/zHgfQOy7hD0J8DY/IlUeQC2Cij3H2LM/IlUeQI1F/T3JB7I/IlUeQNXXND7oDq8/IlUeQLtlZj7lAqs/IlUeQDf5iD4BAKY/IlUeQOommz49KaA/IlUeQAU9qT5dp5k/IlUeQCrZsj7Sp5I/IlUeQD+4tz58W4s/IlUeQD+4tz5Q9YM/IlUeQCrZsj7yUXk/IlUeQAU9qT7eUms/IlUeQOommz4eT14/IlUeQDf5iD6VoVI/IlUeQLtlZj7Om0g/IlUeQNXXND7Hg0A/IlUeQI1F/T0Fkjo/IlUeQC2Cij0J8DY/dzEdQOy7hD3H2LM/wRUcQF/h8T3JB7I/vQkbQI1+LD7oDq8/uxQaQI+fWz7lAqs/aT0ZQE2Fgj4BAKY/pokYQDvPkz49KaA/W/4XQNc0oT5dp5k/VJ8XQJRYqj7Sp5I/KG8XQKD6rj58W4s/KG8XQKD6rj5Q9YM/VJ8XQJRYqj7yUXk/W/4XQNc0oT7eUms/pokYQDvPkz4eT14/aT0ZQE2Fgj6VoVI/uxQaQI+fWz7Om0g/vQkbQI1+LD7Hg0A/wRUcQF/h8T0Fkjo/dzEdQOy7hD0J8DY/WiocQL7zZz3H2LM/sw4aQEnS0D3JB7I/6BAYQOtDFD7oDq8/3j4WQAZbPD7lAqs/TqUUQIOWXz4BAKY/Yk8TQFsAfT49KaA/bkYSQJTliT5dp5k/rZERQOGrkT7Sp5I/DDYRQMqclT58W4s/DDYRQMqclT5Q9YM/rZERQOGrkT7yUXk/bkYSQJTliT7eUms/Yk8TQFsAfT4eT14/TqUUQIOWXz6VoVI/3j4WQAZbPD7Om0g/6BAYQOtDFD7Hg0A/sw4aQEnS0D0Fkjo/WiocQL7zZz0J8DY/ilkbQOm/Mz3H2LM/x3IYQLhUnT3JB7I/G7UVQC4O3T3oDq8/qTMTQKynCz7lAqs/8f8QQLdAJT4BAKY/VCkPQHefOj49KaA/p7wNQLIuSz5dp5k/3cMMQMV6Vj7Sp5I/wEUMQM40XD58W4s/wEUMQM40XD5Q9YM/3cMMQMV6Vj7yUXk/p7wNQLIuSz7eUms/VCkPQHefOj4eT14/8f8QQLdAJT6VoVI/qTMTQKynCz7Om0g/G7UVQC4O3T3Hg0A/x3IYQLhUnT0Fkjo/ilkbQOm/Mz0J8DY/etMaQAHx4zzH2LM/TmoXQPTlOD3JB7I/cDEUQPHmez3oDq8/YD8RQMmTnD3lAqs/sKgOQBB+tz0BAKY/cn8MQFr2zT09KaA/vtIKQL5f3z1dp5k/R64JQKZA6z3Sp5I/BRoJQCFG8T18W4s/BRoJQCFG8T1Q9YM/R64JQKZA6z3yUXk/vtIKQL5f3z3eUms/cn8MQFr2zT0eT14/sKgOQBB+tz2VoVI/YD8RQMmTnD3Om0g/cDEUQPHmez3Hg0A/TmoXQPTlOD0Fkjo/etMaQAHx4zwJ8DY/SKUaQH43JDzH2LM/LQ8XQH43JDzJB7I/3KsTQH43JDzoDq8//pIQQH43JDzlAqs/MtoNQH43JDwBAKY/fJQLQH43JDw9KaA/udEJQH43JDxdp5k/NJ4IQH43JDzSp5I/UQIIQH43JDx8W4s/UQIIQH43JDxQ9YM/NJ4IQH43JDzyUXk/udEJQH43JDzeUms/fJQLQH43JDweT14/MtoNQH43JDyVoVI//pIQQH43JDzOm0g/3KsTQH43JDzHg0A/LQ8XQH43JDwFkjo/SKUaQH43JDwJ8DY/etMaQAzm/rvH2LM/TmoXQGmUzbzJB7I/cDEUQDHLKb3oDq8/YD8RQNILZ73lAqs/sKgOQDBwjr0BAKY/cn8MQHropL09KaA/vtIKQN5Rtr1dp5k/R64JQMYywr3Sp5I/BRoJQEE4yL18W4s/BRoJQEE4yL1Q9YM/R64JQMYywr3yUXk/vtIKQN5Rtr3eUms/cn8MQHropL0eT14/sKgOQDBwjr2VoVI/YD8RQNILZ73Om0g/cDEUQDHLKb3Hg0A/TmoXQGmUzbwFkjo/etMaQAzm/rsJ8DY/ilkbQFNIw7zH2LM/x3IYQLCNaL3JB7I/G7UVQE4AtL3oDq8/qTMTQHhB7r3lAqs/8f8QQMe5EL4BAKY/VCkPQIcYJr49KaA/p7wNQMKnNr5dp5k/3cMMQNXzQb7Sp5I/wEUMQN6tR758W4s/wEUMQN6tR75Q9YM/3cMMQNXzQb7yUXk/p7wNQMKnNr7eUms/VCkPQIcYJr4eT14/8f8QQMe5EL6VoVI/qTMTQHhB7r3Om0g/G7UVQE4AtL3Hg0A/x3IYQLCNaL0Fkjo/ilkbQFNIw7wJ8DY/WiocQP7XFb3H2LM/sw4aQGnEp73JB7I/6BAYQPZ5/73oDq8/3j4WQBbUJ77lAqs/TqUUQJMPS74BAKY/Yk8TQGt5aL49KaA/bkYSQDhEf75dp5k/rZERQGloh77Sp5I/DDYRQFJZi758W4s/DDYRQFJZi75Q9YM/rZERQGloh77yUXk/bkYSQDhEf77eUms/Yk8TQGt5aL4eT14/TqUUQJMPS76VoVI/3j4WQBbUJ77Om0g/6BAYQPZ5/73Hg0A/sw4aQGnEp70Fkjo/WiocQP7XFb0J8DY/dzEdQBlcN73H2LM/wRUcQH/TyL3JB7I/vQkbQJ33F77oDq8/uxQaQJ8YR77lAqs/aT0ZQKqDcL4BAKY/pokYQMOLib49KaA/W/4XQF/xlr5dp5k/VJ8XQBwVoL7Sp5I/KG8XQCi3pL58W4s/KG8XQCi3pL5Q9YM/VJ8XQBwVoL7yUXk/W/4XQF/xlr7eUms/pokYQMOLib4eT14/aT0ZQKqDcL6VoVI/uxQaQJ8YR77Om0g/vQkbQJ33F77Hg0A/wRUcQH/TyL0Fkjo/dzEdQBlcN70J8DY/IlUeQJroQr3H2LM/IlUeQK031L3JB7I/IlUeQOVQIL7oDq8/IlUeQMveUb7lAqs/IlUeQH5rfb4BAKY/IlUeQHLjkL49KaA/IlUeQI35nr5dp5k/IlUeQLKVqL7Sp5I/IlUeQMd0rb58W4s/IlUeQMd0rb5Q9YM/IlUeQLKVqL7yUXk/IlUeQI35nr7eUms/IlUeQHLjkL4eT14/IlUeQH5rfb6VoVI/IlUeQMveUb7Om0g/IlUeQOVQIL7Hg0A/IlUeQK031L0Fkjo/IlUeQJroQr0J8DY/zHgfQBlcN73H2LM/gpQgQH/TyL3JB7I/hqAhQJ33F77oDq8/iJUiQJ8YR77lAqs/22wjQKqDcL4BAKY/nSAkQMOLib49KaA/6KskQF/xlr5dp5k/7wolQBwVoL7Sp5I/GzslQCi3pL58W4s/GzslQCi3pL5Q9YM/7wolQBwVoL7yUXk/6KskQF/xlr7eUms/nSAkQMOLib4eT14/22wjQKqDcL6VoVI/iJUiQJ8YR77Om0g/hqAhQJ33F77Hg0A/gpQgQH/TyL0Fkjo/zHgfQBlcN70J8DY/6n8gQP7XFb3H2LM/kJsiQGnEp73JB7I/XJkkQPZ5/73oDq8/ZWsmQBbUJ77lAqs/9gQoQJMPS74BAKY/4lopQGt5aL49KaA/1WMqQDhEf75dp5k/lxgrQGloh77Sp5I/N3QrQFJZi758W4s/N3QrQFJZi75Q9YM/lxgrQGloh77yUXk/1WMqQDhEf77eUms/4lopQGt5aL4eT14/9gQoQJMPS76VoVI/ZWsmQBbUJ77Om0g/XJkkQPZ5/73Hg0A/kJsiQGnEp70Fkjo/6n8gQP7XFb0J8DY/uVAhQFNIw7zH2LM/fDckQLCNaL3JB7I/KfUmQE4AtL3oDq8/m3YpQHhB7r3lAqs/UqorQMe5EL4BAKY/8IAtQIcYJr49KaA/ne0uQMKnNr5dp5k/ZuYvQNXzQb7Sp5I/g2QwQN6tR758W4s/g2QwQN6tR75Q9YM/ZuYvQNXzQb7yUXk/ne0uQMKnNr7eUms/8IAtQIcYJr4eT14/UqorQMe5EL6VoVI/m3YpQHhB7r3Om0g/KfUmQE4AtL3Hg0A/fDckQLCNaL0Fkjo/uVAhQFNIw7wJ8DY/ytYhQAzm/rvH2LM/9T8lQGmUzbzJB7I/03goQDHLKb3oDq8/42orQNILZ73lAqs/lAEuQDBwjr0BAKY/0iowQHropL09KaA/hdcxQN5Rtr1dp5k//fsyQMYywr3Sp5I/PpAzQEE4yL18W4s/PpAzQEE4yL1Q9YM//fsyQMYywr3yUXk/hdcxQN5Rtr3eUms/0iowQHropL0eT14/lAEuQDBwjr2VoVI/42orQNILZ73Om0g/03goQDHLKb3Hg0A/9T8lQGmUzbwFkjo/ytYhQAzm/rsJ8DY/qsrtP01rkL/O5QpAqsrtP01rkL8DMrw/XSr1P01rkL+ZlwpAk1b8P01rkL8arwlAm44BQE1rkL+pMghAeacEQE1rkL+nLAZARGAHQE1rkL82qwNA+6UJQE1rkL/TvwBAvmgLQE1rkL/H/fo/Q5wMQE1rkL89/vM/JTgNQE1rkL/msew/JTgNQE1rkL+6S+U/Q5wMQE1rkL9k/90/vmgLQE1rkL/Z/9Y/+6UJQE1rkL/5fdA/RGAHQE1rkL81p8o/eacEQE1rkL9RpMU/m44BQE1rkL9OmME/k1b8P01rkL9tn74/XSr1P01rkL9vzrw/+c30P/gjjr+ZlwpAUaD7P4zsi78arwlABgkBQITUib+pMghAFvsDQH/qh7+nLAZAx5EGQNs7hr82qwNABbsIQFbUhL/TvwBAuGcKQMC9g7/H/fo/MIwLQLL/gr89/vM/cSAMQFqfgr/msew/cSAMQFqfgr+6S+U/MIwLQLL/gr9k/90/uGcKQMC9g7/Z/9Y/BbsIQFbUhL/5fdA/x5EGQNs7hr81p8o/FvsDQH/qh79RpMU/BgkBQITUib9OmME/UaD7P4zsi79tn74/+c30P/gjjr9vzrw/2cHzP70VjL+ZlwpAX4/5P3Deh78arwlAuAr/P9nig7+pMghAzgYCQMY+gL+nLAZAhToEQEoXer82qwNAIxEGQJq/dL/TvwBA0H0HQMubcL/H/fo/mXYIQMfIbb89/vM/t/QIQERabL/msew/t/QIQERabL+6S+U/mXYIQMfIbb9k/90/0H0HQMubcL/Z/9Y/IxEGQJq/dL/5fdA/hToEQEoXer81p8o/zgYCQMY+gL9RpMU/uAr/P9nig79OmME/X4/5P3Deh79tn74/2cHzP70VjL9vzrw/OiDyPx50ir+ZlwpAhlf2P5emhL8arwlAHVP6P31Wfr+pMghAMPf9P7ZQdL+nLAZAKZUAQNeBa782qwNAFesBQGEnZL/TvwBACPQCQK50Xr/H/fo/yqgDQIeRWr89/vM/agQEQBOZWL/msew/agQEQBOZWL+6S+U/yqgDQIeRWr9k/90/CPQCQK50Xr/Z/9Y/FesBQGEnZL/5fdA/KZUAQNeBa781p8o/MPf9P7ZQdL9RpMU/HVP6P31Wfr9OmME/hlf2P5emhL9tn74/OiDyPx50ir9vzrw//xHwP/1nib+ZlwpAaknyP6aVgr8arwlAcmH0P9VHeL+pMghAd0v2P5R/bL+nLAZAHPr3P9EkYr82qwNAoGH5P9p/Wb/TvwBANnj6PwzNUr/H/fo/RTb7Py47Tr89/vM/nZb7PyjqS7/msew/nZb7PyjqS7+6S+U/RTb7Py47Tr9k/90/Nnj6PwzNUr/Z/9Y/oGH5P9p/Wb/5fdA/HPr3P9EkYr81p8o/d0v2P5R/bL9RpMU/cmH0P9VHeL9OmME/aknyP6aVgr9tn74//xHwP/1nib9vzrw/qsrtP5kLib+ZlwpAqsrtP2Pfgb8arwlAqsrtP4Mxdr+pMghAqsrtPwnOab+nLAZAqsrtP9zqXr82qwNAqsrtPwPUVb/TvwBAqsrtP/XITr/H/fo/qsrtP+P6Sb89/vM/qsrtP1iLR7/msew/qsrtP1iLR7+6S+U/qsrtP+P6Sb9k/90/qsrtP/XITr/Z/9Y/qsrtPwPUVb/5fdA/qsrtP9zqXr81p8o/qsrtPwnOab9RpMU/qsrtP4Mxdr9OmME/qsrtP2Pfgb9tn74/qsrtP5kLib9vzrw/VYPrP/1nib+ZlwpA6UvpP6aVgr8arwlA4TPnP9VHeL+pMghA3EnlP5R/bL+nLAZAOJvjP9EkYr82qwNAszPiP9p/Wb/TvwBAHR3hPwzNUr/H/fo/Dl/gPy47Tr89/vM/t/7fPyjqS7/msew/t/7fPyjqS7+6S+U/Dl/gPy47Tr9k/90/HR3hPwzNUr/Z/9Y/szPiP9p/Wb/5fdA/OJvjP9EkYr81p8o/3EnlP5R/bL9RpMU/4TPnP9VHeL9OmME/6UvpP6aVgr9tn74/VYPrP/1nib9vzrw/GXXpPx50ir+ZlwpAzT3lP5emhL8arwlANkLhP31Wfr+pMghAI57dP7ZQdL+nLAZAAmvaP9eBa782qwNAKr/XP2EnZL/TvwBAQq3VP650Xr/H/fo/wEPUP4eRWr89/vM/f4zTPxOZWL/msew/f4zTPxOZWL+6S+U/wEPUP4eRWr9k/90/Qq3VP650Xr/Z/9Y/Kr/XP2EnZL/5fdA/AmvaP9eBa781p8o/I57dP7ZQdL9RpMU/NkLhP31Wfr9OmME/zT3lP5emhL9tn74/GXXpPx50ir9vzrw/e9PnP70VjL+ZlwpA9AXiP3Deh78arwlAm4rcP9nig7+pMghAuIfXP8Y+gL+nLAZASCDTP0oXer82qwNADXPPP5q/dL/TvwBAtJnMP8ubcL/H/fo/IKjKP8fIbb89/vM/5qvJP0RabL/msew/5qvJP0RabL+6S+U/IKjKP8fIbb9k/90/tJnMP8ubcL/Z/9Y/DXPPP5q/dL/5fdA/SCDTP0oXer81p8o/uIfXP8Y+gL9RpMU/m4rcP9nig79OmME/9AXiP3Deh79tn74/e9PnP70VjL9vzrw/WsfmP/gjjr+ZlwpAA/XfP4zsi78arwlAR4PZP4TUib+pMghAJ5/TP3/qh7+nLAZAxXHOP9s7hr82qwNASh/KP1bUhL/TvwBA48XGP8C9g7/H/fo/9HzEP7L/gr89/vM/cVTDP1qfgr/msew/cVTDP1qfgr+6S+U/9HzEP7L/gr9k/90/48XGP8C9g7/Z/9Y/Sh/KP1bUhL/5fdA/xXHOP9s7hr81p8o/J5/TP3/qh79RpMU/R4PZP4TUib9OmME/A/XfP4zsi79tn74/WsfmP/gjjr9vzrw/9mrmP01rkL+ZlwpAwD7fP01rkL8arwlAHnjYP01rkL+pMghAYUbSP01rkL+nLAZAy9TMP01rkL82qwNAXknIP01rkL/TvwBA18PEP01rkL/H/fo/zlzCP01rkL89/vM/CSXBP01rkL/msew/CSXBP01rkL+6S+U/zlzCP01rkL9k/90/18PEP01rkL/Z/9Y/XknIP01rkL/5fdA/y9TMP01rkL81p8o/YUbSP01rkL9RpMU/HnjYP01rkL9OmME/wD7fP01rkL9tn74/9mrmP01rkL9vzrw/WsfmP6Kykr+ZlwpAA/XfPw7qlL8arwlAR4PZPxUCl7+pMghAJ5/TPxvsmL+nLAZAxXHOP7+amr82qwNASh/KP0QCnL/TvwBA48XGP9oYnb/H/fo/9HzEP+jWnb89/vM/cVTDP0A3nr/msew/cVTDP0A3nr+6S+U/9HzEP+jWnb9k/90/48XGP9oYnb/Z/9Y/Sh/KP0QCnL/5fdA/xXHOP7+amr81p8o/J5/TPxvsmL9RpMU/R4PZPxUCl79OmME/A/XfPw7qlL9tn74/WsfmP6Kykr9vzrw/e9PnP93AlL+ZlwpA9AXiPyn4mL8arwlAm4rcP8HznL+pMghAuIfXP9OXoL+nLAZASCDTP/XKo782qwNADXPPP812pr/TvwBAtJnMP7SIqL/H/fo/IKjKPzfyqb89/vM/5qvJP3ipqr/msew/5qvJP3ipqr+6S+U/IKjKPzfyqb9k/90/tJnMP7SIqL/Z/9Y/DXPPP812pr/5fdA/SCDTP/XKo781p8o/uIfXP9OXoL9RpMU/m4rcP8HznL9OmME/9AXiPyn4mL9tn74/e9PnP93AlL9vzrw/GXXpP3xilr+ZlwpAzT3lPwMwnL8arwlANkLhP1urob+pMghAI57dPz+upr+nLAZAAmvaP64Vq782qwNAKr/XP+nCrr/TvwBAQq3VP0Ocsb/H/fo/wEPUP9aNs789/vM/f4zTPxCKtL/msew/f4zTPxCKtL+6S+U/wEPUP9aNs79k/90/Qq3VP0Ocsb/Z/9Y/Kr/XP+nCrr/5fdA/AmvaP64Vq781p8o/I57dPz+upr9RpMU/NkLhP1urob9OmME/zT3lPwMwnL9tn74/GXXpP3xilr9vzrw/VYPrP51ul7+ZlwpA6UvpP/RAnr8arwlA4TPnP7CypL+pMghA3EnlP9CWqr+nLAZAOJvjPzHEr782qwNAszPiP60WtL/TvwBAHR3hPxRwt7/H/fo/Dl/gPwO5ub89/vM/t/7fP4bhur/msew/t/7fP4bhur+6S+U/Dl/gPwO5ub9k/90/HR3hPxRwt7/Z/9Y/szPiP60WtL/5fdA/OJvjPzHEr781p8o/3EnlP9CWqr9RpMU/4TPnP7CypL9OmME/6UvpP/RAnr9tn74/VYPrP51ul79vzrw/qsrtPwHLl7+ZlwpAqsrtPzf3nr8arwlAqsrtP9m9pb+pMghAqsrtP5Xvq7+nLAZAqsrtPyxhsb82qwNAqsrtP5jstb/TvwBAqsrtPx9yub/H/fo/qsrtPyjZu789/vM/qsrtP+4Qvb/msew/qsrtP+4Qvb+6S+U/qsrtPyjZu79k/90/qsrtPx9yub/Z/9Y/qsrtP5jstb/5fdA/qsrtPyxhsb81p8o/qsrtP5Xvq79RpMU/qsrtP9m9pb9OmME/qsrtPzf3nr9tn74/qsrtPwHLl79vzrw//xHwP51ul7+ZlwpAaknyP/RAnr8arwlAcmH0P7CypL+pMghAd0v2P9CWqr+nLAZAHPr3PzHEr782qwNAoGH5P60WtL/TvwBANnj6PxRwt7/H/fo/RTb7PwO5ub89/vM/nZb7P4bhur/msew/nZb7P4bhur+6S+U/RTb7PwO5ub9k/90/Nnj6PxRwt7/Z/9Y/oGH5P60WtL/5fdA/HPr3PzHEr781p8o/d0v2P9CWqr9RpMU/cmH0P7CypL9OmME/aknyP/RAnr9tn74//xHwP51ul79vzrw/OiDyP3xilr+ZlwpAhlf2PwMwnL8arwlAHVP6P1urob+pMghAMPf9Pz+upr+nLAZAKZUAQK4Vq782qwNAFesBQOnCrr/TvwBACPQCQEOcsb/H/fo/yqgDQNaNs789/vM/agQEQBCKtL/msew/agQEQBCKtL+6S+U/yqgDQNaNs79k/90/CPQCQEOcsb/Z/9Y/FesBQOnCrr/5fdA/KZUAQK4Vq781p8o/MPf9Pz+upr9RpMU/HVP6P1urob9OmME/hlf2PwMwnL9tn74/OiDyP3xilr9vzrw/2cHzP93AlL+ZlwpAX4/5Pyn4mL8arwlAuAr/P8HznL+pMghAzgYCQNOXoL+nLAZAhToEQPXKo782qwNAIxEGQM12pr/TvwBA0H0HQLSIqL/H/fo/mXYIQDfyqb89/vM/t/QIQHipqr/msew/t/QIQHipqr+6S+U/mXYIQDfyqb9k/90/0H0HQLSIqL/Z/9Y/IxEGQM12pr/5fdA/hToEQPXKo781p8o/zgYCQNOXoL9RpMU/uAr/P8HznL9OmME/X4/5Pyn4mL9tn74/2cHzP93AlL9vzrw/+c30P6Kykr+ZlwpAUaD7Pw7qlL8arwlABgkBQBUCl7+pMghAFvsDQBvsmL+nLAZAx5EGQL+amr82qwNABbsIQEQCnL/TvwBAuGcKQNoYnb/H/fo/MIwLQOjWnb89/vM/cSAMQEA3nr/msew/cSAMQEA3nr+6S+U/MIwLQOjWnb9k/90/uGcKQNoYnb/Z/9Y/BbsIQEQCnL/5fdA/x5EGQL+amr81p8o/FvsDQBvsmL9RpMU/BgkBQBUCl79OmME/UaD7Pw7qlL9tn74/+c30P6Kykr9vzrw/3rAgP7K1zb8zn/4/3rAgP7K1zb+ZBaU/RXAvP7K1zb/IAv4/scg9P7K1zb/KMfw/9VVLP7K1zb/oOPk/brlXP7K1zb/lLPU/m5xiP7K1zb8BKvA/dbNrP7K1zb89U+o/gr5yP7K1zb9d0eM/lYx3P7K1zb/T0dw/H/x5P7K1zb98hdU/H/x5P7K1zb9QH84/lYx3P7K1zb/50sY/gr5yP7K1zb9v078/dbNrP7K1zb+PUbk/m5xiP7K1zb/LerM/brlXP7K1zb/nd64/9VVLP7K1zb/ka6o/scg9P7K1zb8Dc6c/RXAvP7K1zb8FoqU/fbcuP11uy7/IAv4/K1w8P/E2yb/KMfw/oz9JP+kex7/oOPk/4wdVP+Q0xb/lLPU/pmJfP0CGw78BKvA/nQdoP7sewr89U+o/a7puPyUIwb9d0eM/SkxzPxZKwL/T0dw/UJ11P7/pv798hdU/UJ11P7/pv79QH84/SkxzPxZKwL/50sY/a7puPyUIwb9v078/nQdoP7sewr+PUbk/pmJfP0CGw7/LerM/4wdVP+Q0xb/nd64/oz9JP+kex7/ka6o/K1w8P/E2yb8Dc6c/fbcuP11uy78FoqU/O58sPyFgyb/IAv4/STo4P9Uoxb/KMfw/+jBDPz4twb/oOPk/wTZNPyuJvb/lLPU/oAVWPwpWur8BKvA/FmBdPzKqt789U+o/yhJjP0qYtb9d0eM/8PVmP8gutL/T0dw/Ze5oP4d3s798hdU/Ze5oP4d3s79QH84/8PVmP8gutL/50sY/yhJjP0qYtb9v078/FmBdPzKqt7+PUbk/oAVWPwpWur/LerM/wTZNPyuJvb/nd64/+jBDPz4twb/ka6o/STo4P9Uoxb8Dc6c/O58sPyFgyb8FoqU//lspP4O+x7/IAv4/l8oxP/zwwb/KMfw/xcE5P6N1vL/oOPk/6wlBP8Byt7/lLPU/LXBHP1ALs78BKvA/3cdMPxVer789U+o/rOtQP7yErL9d0eM/sb5TPyiTqr/T0dw/My1VP+6Wqb98hdU/My1VP+6Wqb9QH84/sb5TPyiTqr/50sY/rOtQP7yErL9v078/3cdMPxVer7+PUbk/LXBHP1ALs7/LerM/6wlBP8Byt7/nd64/xcE5P6N1vL/ka6o/l8oxP/zwwb8Dc6c//lspP4O+x78FoqU/iD8lP2Kyxr/IAv4/X64pPwvgv7/KMfw/b94tP09uub/oOPk/ebIxPy+Ks7/lLPU/wg81P81crr8BKvA/y943P1IKqr89U+o/9ws6P+uwpr9d0eM/FIg7P/xnpL/T0dw/xEg8P3k/o798hdU/xEg8P3k/o79QH84/FIg7P/xnpL/50sY/9ws6P+uwpr9v078/y943P1IKqr+PUbk/wg81P81crr/LerM/ebIxPy+Ks7/nd64/b94tP09uub/ka6o/X64pPwvgv78Dc6c/iD8lP2Kyxr8FoqU/3rAgP/5Vxr/IAv4/3rAgP8gpv7/KMfw/3rAgPyZjuL/oOPk/3rAgP2kxsr/lLPU/3rAgP9O/rL8BKvA/3rAgP2Y0qL89U+o/3rAgP9+upL9d0eM/3rAgP9ZHor/T0dw/3rAgPxEQob98hdU/3rAgPxEQob9QH84/3rAgP9ZHor/50sY/3rAgP9+upL9v078/3rAgP2Y0qL+PUbk/3rAgP9O/rL/LerM/3rAgP2kxsr/nd64/3rAgPyZjuL/ka6o/3rAgP8gpv78Dc6c/3rAgP/5Vxr8FoqU/MyIcP2Kyxr/IAv4/XLMXPwvgv7/KMfw/TIMTP09uub/oOPk/Qq8PPy+Ks7/lLPU/+lEMP81crr8BKvA/8IIJP1IKqr89U+o/xFUHP+uwpr9d0eM/p9kFP/xnpL/T0dw/9xgFP3k/o798hdU/9xgFP3k/o79QH84/p9kFP/xnpL/50sY/xFUHP+uwpr9v078/8IIJP1IKqr+PUbk/+lEMP81crr/LerM/Qq8PPy+Ks7/nd64/TIMTP09uub/ka6o/XLMXPwvgv78Dc6c/MyIcP2Kyxr8FoqU/vQUYP4O+x7/IAv4/JZcPP/zwwb/KMfw/9p8HP6N1vL/oOPk/0VcAP8Byt7/lLPU/HOPzPlALs78BKvA/vDPpPhVer789U+o/HuzgPryErL9d0eM/FUbbPiiTqr/T0dw/EGnYPu6Wqb98hdU/EGnYPu6Wqb9QH84/FUbbPiiTqr/50sY/HuzgPryErL9v078/vDPpPhVer7+PUbk/HOPzPlALs7/LerM/0VcAP8Byt7/nd64/9p8HP6N1vL/ka6o/JZcPP/zwwb8Dc6c/vQUYP4O+x78FoqU/gMIUPyFgyb/IAv4/cicJP9Uoxb/KMfw/gmH8Pj4twb/oOPk/9FXoPiuJvb/lLPU/NrjWPgpWur8BKvA/SgPIPjKqt789U+o/4528PkqYtb9d0eM/lte0PsgutL/T0dw/reawPod3s798hdU/reawPod3s79QH84/lte0PsgutL/50sY/4528PkqYtb9v078/SgPIPjKqt7+PUbk/NrjWPgpWur/LerM/9FXoPiuJvb/nd64/gmH8Pj4twb/ka6o/cicJP9Uoxb8Dc6c/gMIUPyFgyb8FoqU/PqoSP11uy7/IAv4/kAUFP/E2yb/KMfw/MUTwPukex7/oOPk/sLPYPuQ0xb/lLPU/Kv7DPkCGw78BKvA/PLSyPrsewr89U+o/oE6lPiUIwb9d0eM/4yqcPhZKwL/T0dw/14iXPr/pv798hdU/14iXPr/pv79QH84/4yqcPhZKwL/50sY/oE6lPiUIwb9v078/PLSyPrsewr+PUbk/Kv7DPkCGw7/LerM/sLPYPuQ0xb/nd64/MUTwPukex7/ka6o/kAUFP/E2yb8Dc6c/PqoSP11uy78FoqU/dvERP7K1zb/IAv4/CpkDP7K1zb/KMfw/jRfsPrK1zb/oOPk/mlDTPrK1zb/lLPU/QIq9PrK1zb8BKvA/jVyrPrK1zb89U+o/ckadPrK1zb9d0eM/TaqTPrK1zb/T0dw/OMuOPrK1zb98hdU/OMuOPrK1zb9QH84/TaqTPrK1zb/50sY/ckadPrK1zb9v078/jVyrPrK1zb+PUbk/QIq9PrK1zb/LerM/mlDTPrK1zb/nd64/jRfsPrK1zb/ka6o/CpkDP7K1zb8Dc6c/dvERP7K1zb8FoqU/PqoSPwf9z7/IAv4/kAUFP3I00r/KMfw/MUTwPnpM1L/oOPk/sLPYPn821r/lLPU/Kv7DPiTl178BKvA/PLSyPqhM2b89U+o/oE6lPj9j2r9d0eM/4yqcPk0h27/T0dw/14iXPqWB2798hdU/14iXPqWB279QH84/4yqcPk0h27/50sY/oE6lPj9j2r9v078/PLSyPqhM2b+PUbk/Kv7DPiTl17/LerM/sLPYPn821r/nd64/MUTwPnpM1L/ka6o/kAUFP3I00r8Dc6c/PqoSPwf9z78FoqU/gMIUP0IL0r/IAv4/cicJP45C1r/KMfw/gmH8PiY+2r/oOPk/9FXoPjji3b/lLPU/NrjWPloV4b8BKvA/SgPIPjLB4789U+o/4528PhnT5b9d0eM/lte0Pps857/T0dw/reawPtzz5798hdU/reawPtzz579QH84/lte0Pps857/50sY/4528PhnT5b9v078/SgPIPjLB47+PUbk/NrjWPloV4b/LerM/9FXoPjji3b/nd64/gmH8PiY+2r/ka6o/cicJP45C1r8Dc6c/gMIUP0IL0r8FoqU/vQUYP+Gs07/IAv4/JZcPP2d62b/KMfw/9p8HP8D13r/oOPk/0VcAP6P447/lLPU/HOPzPhNg6L8BKvA/vDPpPk4N7L89U+o/HuzgPqjm7r9d0eM/FUbbPjvY8L/T0dw/EGnYPnXU8b98hdU/EGnYPnXU8b9QH84/FUbbPjvY8L/50sY/HuzgPqjm7r9v078/vDPpPk4N7L+PUbk/HOPzPhNg6L/LerM/0VcAP6P447/nd64/9p8HP8D13r/ka6o/JZcPP2d62b8Dc6c/vQUYP+Gs078FoqU/MyIcPwK51L/IAv4/XLMXP1mL27/KMfw/TIMTPxT94b/oOPk/Qq8PPzXh57/lLPU/+lEMP5YO7b8BKvA/8IIJPxFh8b89U+o/xFUHP3i69L9d0eM/p9kFP2gD97/T0dw/9xgFP+sr+L98hdU/9xgFP+sr+L9QH84/p9kFP2gD97/50sY/xFUHP3i69L9v078/8IIJPxFh8b+PUbk/+lEMP5YO7b/LerM/Qq8PPzXh57/nd64/TIMTPxT94b/ka6o/XLMXP1mL278Dc6c/MyIcPwK51L8FoqU/3rAgP2YV1b/IAv4/3rAgP5xB3L/KMfw/3rAgPz0I47/oOPk/3rAgP/o56b/lLPU/3rAgP5Cr7r8BKvA/3rAgP/028789U+o/3rAgP4S89r9d0eM/3rAgP40j+b/T0dw/3rAgP1Jb+r98hdU/3rAgP1Jb+r9QH84/3rAgP40j+b/50sY/3rAgP4S89r9v078/3rAgP/0287+PUbk/3rAgP5Cr7r/LerM/3rAgP/o56b/nd64/3rAgPz0I47/ka6o/3rAgP5xB3L8Dc6c/3rAgP2YV1b8FoqU/iD8lPwK51L/IAv4/X64pP1mL27/KMfw/b94tPxT94b/oOPk/ebIxPzXh57/lLPU/wg81P5YO7b8BKvA/y943PxFh8b89U+o/9ws6P3i69L9d0eM/FIg7P2gD97/T0dw/xEg8P+sr+L98hdU/xEg8P+sr+L9QH84/FIg7P2gD97/50sY/9ws6P3i69L9v078/y943PxFh8b+PUbk/wg81P5YO7b/LerM/ebIxPzXh57/nd64/b94tPxT94b/ka6o/X64pP1mL278Dc6c/iD8lPwK51L8FoqU//lspP+Gs07/IAv4/l8oxP2d62b/KMfw/xcE5P8D13r/oOPk/6wlBP6P447/lLPU/LXBHPxNg6L8BKvA/3cdMP04N7L89U+o/rOtQP6jm7r9d0eM/sb5TPzvY8L/T0dw/My1VP3XU8b98hdU/My1VP3XU8b9QH84/sb5TPzvY8L/50sY/rOtQP6jm7r9v078/3cdMP04N7L+PUbk/LXBHPxNg6L/LerM/6wlBP6P447/nd64/xcE5P8D13r/ka6o/l8oxP2d62b8Dc6c//lspP+Gs078FoqU/O58sP0IL0r/IAv4/STo4P45C1r/KMfw/+jBDPyY+2r/oOPk/wTZNPzji3b/lLPU/oAVWP1oV4b8BKvA/FmBdPzLB4789U+o/yhJjPxnT5b9d0eM/8PVmP5s857/T0dw/Ze5oP9zz5798hdU/Ze5oP9zz579QH84/8PVmP5s857/50sY/yhJjPxnT5b9v078/FmBdPzLB47+PUbk/oAVWP1oV4b/LerM/wTZNPzji3b/nd64/+jBDPyY+2r/ka6o/STo4P45C1r8Dc6c/O58sP0IL0r8FoqU/fbcuPwf9z7/IAv4/K1w8P3I00r/KMfw/oz9JP3pM1L/oOPk/4wdVP3821r/lLPU/pmJfPyTl178BKvA/nQdoP6hM2b89U+o/a7puPz9j2r9d0eM/SkxzP00h27/T0dw/UJ11P6WB2798hdU/UJ11P6WB279QH84/SkxzP00h27/50sY/a7puPz9j2r9v078/nQdoP6hM2b+PUbk/pmJfPyTl17/LerM/4wdVP3821r/nd64/oz9JP3pM1L/ka6o/K1w8P3I00r8Dc6c/fbcuPwf9z78FoqU/vJGovvbWl7+8enQ/vJGovvbWl78Rj4I+7RKLvvbWl7/lQXM/KsRcvvbWl7/pn28/G48mvvbWl78nrmk/awLqvfbWl78glmE/BemSvfbWl79ZkFc/cWQUvfbWl7/Q4ks/Zs4OvPbWl78Q3z4/OrYkPPbWl7/73zA/bUygPPbWl79ORyI/bUygPPbWl7/2ehM/OrYkPPbWl79J4gQ/Zs4OvPbWl79pxu0+cWQUvfbWl7/pvtM+BemSvfbWl7/XY7w+awLqvfbWl79JWKg+G48mvvbWl787KJg+KsRcvvbWl7+2RIw+7RKLvvbWl7++AIU+fYSMvqGPlb/lQXM/QXZivjVYk7/pn28/Y+guvi1Akb8nrmk/w47/vShWj78glmE/rbisvYSnjb9ZkFc/6SFPvf8/jL/Q4ks/E+rHvGkpi78Q3z4/DLnWu1prir/73zA/6ZMjOwILir9ORyI/6ZMjOwILir/2ehM/DLnWu1prir9J4gQ/E+rHvGkpi79pxu0+6SFPvf8/jL/pvtM+rbisvYSnjb/XY7w+w47/vShWj79JWKg+Y+guvi1Akb87KJg+QXZivjVYk7+2RIw+fYSMvqGPlb++AIU+ALWQvmWBk7/lQXM/zP1yvhlKj7/pn28/BSNHvoJOi78nrmk/6gsfvm+qh78glmE/26D3vU53hL9ZkFc/K828vXbLgb/Q4ks/kTePvR1zf78Q3z4/uTxgvRigfL/73zA/cbVAvZYxe79ORyI/cbVAvZYxe7/2ehM/uTxgvRigfL9J4gQ/kTePvR1zf79pxu0+K828vXbLgb/pvtM+26D3vU53hL/XY7w+6gsfvm+qh79JWKg+BSNHvoJOi787KJg+zP1yvhlKj7+2RIw+ALWQvmWBk7++AIU+ezuXvsffkb/lQXM/Sl6GvkASjL/pn28/2d9svueWhr8nrmk/RL9PvgSUgb8glmE/OSY2vihZer9ZkFc/eccgvrL+cr/Q4ks/PjgQvv9Lbb8Q3z4/K+wEvtloab/73zA/RWT+vWRwZ79ORyI/RWT+vWRwZ7/2ehM/K+wEvtloab9J4gQ/PjgQvv9Lbb9pxu0+eccgvrL+cr/pvtM+OSY2vihZer/XY7w+RL9PvgSUgb9JWKg+2d9svueWhr87KJg+Sl6GvkASjL+2RIw+ezuXvsffkb++AIU+aHSfvqbTkL/lQXM/upaWvk8Bir/pn28/mjaOvpOPg78nrmk/ho6GvuVWe78glmE/6Kd/viP8cL9ZkFc/w2t0vixXaL/Q4ks/Ebdrvl6kYb8Q3z4/ncZlvn8SXb/73zA/4MNivnnBWr9ORyI/4MNivnnBWr/2ehM/ncZlvn8SXb9J4gQ/Ebdrvl6kYb9pxu0+w2t0vixXaL/pvtM+6Kd/viP8cL/XY7w+ho6GvuVWe79JWKg+mjaOvpOPg787KJg+upaWvk8Bir+2RIw+aHSfvqbTkL++AIU+vJGovkJ3kL/lQXM/vJGovgxLib/pn28/vJGovmqEgr8nrmk/vJGovlqleL8glmE/vJGovi7Cbb9ZkFc/vJGovlSrZL/Q4ks/vJGovkegXb8Q3z4/vJGovjTSWL/73zA/vJGovqpiVr9ORyI/vJGovqpiVr/2ehM/vJGovjTSWL9J4gQ/vJGovkegXb9pxu0+vJGovlSrZL/pvtM+vJGovi7Cbb/XY7w+vJGovlqleL9JWKg+vJGovmqEgr87KJg+vJGovgxLib+2RIw+vJGovkJ3kL++AIU+EK+xvqbTkL/lQXM/v4y6vk8Bir/pn28/3uzCvpOPg78nrmk/8pTKvuVWe78glmE/hE/RviP8cL9ZkFc/l+3WvixXaL/Q4ks/8Efbvl6kYb8Q3z4/KkDevn8SXb/73zA/iMHfvnnBWr9ORyI/iMHfvnnBWr/2ehM/KkDevn8SXb9J4gQ/8Efbvl6kYb9pxu0+l+3WvixXaL/pvtM+hE/RviP8cL/XY7w+8pTKvuVWe79JWKg+3uzCvpOPg787KJg+v4y6vk8Bir+2RIw+EK+xvqbTkL++AIU+/ee5vsffkb/lQXM/LsXKvkASjL/pn28/jLPavueWhr8nrmk/1kPpvgSUgb8glmE/XBD2vihZer9ZkFc/3l8Av7L+cr/Q4ks/rYMEv/9Lbb8Q3z4/sVYHv9loab/73zA/NMUIv2RwZ79ORyI/NMUIv2RwZ7/2ehM/sVYHv9loab9J4gQ/rYMEv/9Lbb9pxu0+3l8Av7L+cr/pvtM+XBD2vihZer/XY7w+1kPpvgSUgb9JWKg+jLPavueWhr87KJg+LsXKvkASjL+2RIw+/ee5vsffkb++AIU+eG7AvmWBk7/lQXM/kqTXvhlKj7/pn28/9pHtvoJOi78nrmk/ws4Av2+qh78glmE/oZ0Jv053hL9ZkFc/F/gQv3bLgb/Q4ks/yqoWvx1zf78Q3z4/8Y0avxigfL/73zA/ZYYcv5Yxe79ORyI/ZYYcv5Yxe7/2ehM/8Y0avxigfL9J4gQ/yqoWvx1zf79pxu0+F/gQv3bLgb/pvtM+oZ0Jv053hL/XY7w+ws4Av2+qh79JWKg+9pHtvoJOi787KJg+kqTXvhlKj7+2RIw+eG7AvmWBk7++AIU++57EvqGPlb/lQXM/WOjfvjVYk7/pn28/R6/5vi1Akb8nrmk/5J8IvyhWj78glmE/p/oSv4Snjb9ZkFc/np8bv/8/jL/Q4ks/bFIiv2kpi78Q3z4/SuQmv1prir/73zA/UDUpvwILir9ORyI/UDUpvwILir/2ehM/SuQmv1prir9J4gQ/bFIiv2kpi79pxu0+np8bv/8/jL/pvtM+p/oSv4Snjb/XY7w+5J8IvyhWj79JWKg+R6/5vi1Akb87KJg+WOjfvjVYk7+2RIw++57EvqGPlb++AIU+ixDGvvbWl7/lQXM/Y8HivvbWl7/pn28/69v9vvbWl78nrmk/b1ELv/bWl78glmE/nDQWv/bWl79ZkFc/dUsfv/bWl7/Q4ks/g1Ymv/bWl78Q3z4/lSQrv/bWl7/73zA/IJQtv/bWl79ORyI/IJQtv/bWl7/2ehM/lSQrv/bWl79J4gQ/g1Ymv/bWl79pxu0+dUsfv/bWl7/pvtM+nDQWv/bWl7/XY7w+b1ELv/bWl79JWKg+69v9vvbWl787KJg+Y8HivvbWl7+2RIw+ixDGvvbWl7++AIU++57Evksemr/lQXM/WOjfvrZVnL/pn28/R6/5vr5tnr8nrmk/5J8Iv8NXoL8glmE/p/oSv2gGor9ZkFc/np8bv+xto7/Q4ks/bFIiv4KEpL8Q3z4/SuQmv5FCpb/73zA/UDUpv+mipb9ORyI/UDUpv+mipb/2ehM/SuQmv5FCpb9J4gQ/bFIiv4KEpL9pxu0+np8bv+xto7/pvtM+p/oSv2gGor/XY7w+5J8Iv8NXoL9JWKg+R6/5vr5tnr87KJg+WOjfvrZVnL+2RIw++57Evksemr++AIU+eG7AvoYsnL/lQXM/kqTXvtJjoL/pn28/9pHtvmlfpL8nrmk/ws4Av3wDqL8glmE/oZ0Jv502q79ZkFc/F/gQv3Xirb/Q4ks/yqoWv130r78Q3z4/8Y0av99dsb/73zA/ZYYcvyAVsr9ORyI/ZYYcvyAVsr/2ehM/8Y0av99dsb9J4gQ/yqoWv130r79pxu0+F/gQv3Xirb/pvtM+oZ0Jv502q7/XY7w+ws4Av3wDqL9JWKg+9pHtvmlfpL87KJg+kqTXvtJjoL+2RIw+eG7AvoYsnL++AIU+/ee5viTOnb/lQXM/LsXKvqubo7/pn28/jLPavgQXqb8nrmk/1kPpvucZrr8glmE/XBD2vleBsr9ZkFc/3l8Av5Iutr/Q4ks/rYMEv+wHub8Q3z4/sVYHv3/5ur/73zA/NMUIv7n1u79ORyI/NMUIv7n1u7/2ehM/sVYHv3/5ur9J4gQ/rYMEv+wHub9pxu0+3l8Av5Iutr/pvtM+XBD2vleBsr/XY7w+1kPpvucZrr9JWKg+jLPavgQXqb87KJg+LsXKvqubo7+2RIw+/ee5viTOnb++AIU+EK+xvkXanr/lQXM/v4y6vpyspb/pn28/3uzCvlgerL8nrmk/8pTKvngCsr8glmE/hE/Rvtovt79ZkFc/l+3WvlWCu7/Q4ks/8Efbvrzbvr8Q3z4/KkDevqwkwb/73zA/iMHfvi9Nwr9ORyI/iMHfvi9Nwr/2ehM/KkDevqwkwb9J4gQ/8Efbvrzbvr9pxu0+l+3WvlWCu7/pvtM+hE/Rvtovt7/XY7w+8pTKvngCsr9JWKg+3uzCvlgerL87KJg+v4y6vpyspb+2RIw+EK+xvkXanr++AIU+vJGovqk2n7/lQXM/vJGovt9ipr/pn28/vJGovoEprb8nrmk/vJGovj5bs78glmE/vJGovtTMuL9ZkFc/vJGovkFYvb/Q4ks/vJGovsjdwL8Q3z4/vJGovtFEw7/73zA/vJGovpZ8xL9ORyI/vJGovpZ8xL/2ehM/vJGovtFEw79J4gQ/vJGovsjdwL9pxu0+vJGovkFYvb/pvtM+vJGovtTMuL/XY7w+vJGovj5bs79JWKg+vJGovoEprb87KJg+vJGovt9ipr+2RIw+vJGovqk2n7++AIU+aHSfvkXanr/lQXM/upaWvpyspb/pn28/mjaOvlgerL8nrmk/ho6GvngCsr8glmE/6Kd/vtovt79ZkFc/w2t0vlWCu7/Q4ks/Ebdrvrzbvr8Q3z4/ncZlvqwkwb/73zA/4MNivi9Nwr9ORyI/4MNivi9Nwr/2ehM/ncZlvqwkwb9J4gQ/Ebdrvrzbvr9pxu0+w2t0vlWCu7/pvtM+6Kd/vtovt7/XY7w+ho6GvngCsr9JWKg+mjaOvlgerL87KJg+upaWvpyspb+2RIw+aHSfvkXanr++AIU+ezuXviTOnb/lQXM/Sl6Gvqubo7/pn28/2d9svgQXqb8nrmk/RL9PvucZrr8glmE/OSY2vleBsr9ZkFc/eccgvpIutr/Q4ks/PjgQvuwHub8Q3z4/K+wEvn/5ur/73zA/RWT+vbn1u79ORyI/RWT+vbn1u7/2ehM/K+wEvn/5ur9J4gQ/PjgQvuwHub9pxu0+eccgvpIutr/pvtM+OSY2vleBsr/XY7w+RL9PvucZrr9JWKg+2d9svgQXqb87KJg+Sl6Gvqubo7+2RIw+ezuXviTOnb++AIU+ALWQvoYsnL/lQXM/zP1yvtJjoL/pn28/BSNHvmlfpL8nrmk/6gsfvnwDqL8glmE/26D3vZ02q79ZkFc/K828vXXirb/Q4ks/kTePvV30r78Q3z4/uTxgvd9dsb/73zA/cbVAvSAVsr9ORyI/cbVAvSAVsr/2ehM/uTxgvd9dsb9J4gQ/kTePvV30r79pxu0+K828vXXirb/pvtM+26D3vZ02q7/XY7w+6gsfvnwDqL9JWKg+BSNHvmlfpL87KJg+zP1yvtJjoL+2RIw+ALWQvoYsnL++AIU+fYSMvksemr/lQXM/QXZivrZVnL/pn28/Y+guvr5tnr8nrmk/w47/vcNXoL8glmE/rbisvWgGor9ZkFc/6SFPvexto7/Q4ks/E+rHvIKEpL8Q3z4/DLnWu5FCpb/73zA/6ZMjO+mipb9ORyI/6ZMjO+mipb/2ehM/DLnWu5FCpb9J4gQ/E+rHvIKEpL9pxu0+6SFPvexto7/pvtM+rbisvWgGor/XY7w+w47/vcNXoL9JWKg+Y+guvr5tnr87KJg+QXZivrZVnL+2RIw+fYSMvksemr++AIU+BzHivozUCT3tfas9zK3YviWgCz3QEaY9WvrPvt/hAj1cVZY9u/DIvqbp4DzJpXs9SUHEvn5NrDw14T09bWHCvkErWjyo0fI8IIDDvvfIpTvOwVM8UoHHvrntP7sEQg27qQDOvuOkIbw8ZGe8UlvWvqD3drzwo7K89L/fvsPMk7xiVMi8L0PpvvNjl7zwo7K8ofbxvmfnhbw8ZGe8QAD5vqEaQrwEQg27sq/9vqLEsbvPwVM8jo//vqo1Fjuo0fI823D+vjDULDw14T09qG/6vg3alzzJpXs9UvDzvseu0DxcVZY9qZXrviZY+zzQEaY9RcqpvgqIlL9Suig/C0egvq15lL/PDCg/mZOXvp+/lL9AFSY/+omQvghTlb/xBCM/h9qLvngllr+oKB8/rPqJvlgil78i4Ro/XxmLvuUwmL+cmRY/kRqPvqU2mb9TvRI/55mVvvgZmr8ErQ8/kPSdvp3Emr91tQ0/M1mnvuElm7/yBw0/btywvj40m791tQ0/34+5vkzumr8ErQ8/f5nAvuNamr9TvRI/8UjFvnOImb+cmRY/zSjHvpOLmL8i4Ro/GQrGvgZ9l7+oKB8/5wjCvkZ3lr/xBCM/kYm7vvOTlb9AFSY/6C6zvk7plL/PDCg/ekXKvukmMbuY+hm8djHJvujcgTz9WPW7SXHKvjy1CT1glf66peXNvjMiSD15XNs7+TfTvgUZdj0k/o886eLZvvGMhz2o0fI8YD/hvhxZiD2W0io95pTovhG6ej0ZZlc9tCvvvvNXTz1Txno9ql70vgPLEj1kvog9gKv3vjMBljwnqIw9hL/4vnYkgLlkvog9sX/3viGOk7xTxno9Vgv0vgg0CL0ZZlc9ArnuvtoqNr2W0io9Eg7ovrcrT72o0fI8m7Hgvg3EUL0k/o88FFzZvubLOr15XNs7R8XSvshpD71flf66UZLNvrG5pbz9WPW7aHyJv7wGIj4A6VK/ZzeJv/QGNT7Ia1K/XIeJv6Y4Rz5gAFG/c2SKv+TTVj5dyk6/B7mLv5lRYj4lAUy/w2ONv9CRaD6I6ki/4TqPv+b3aD7s00W/QxCRv9x5Yz60CkO/9rWSv1ShWD6x1EC/tAKUvxh+ST5JaT+/6dWUv36LNz4R7D6/6hqVv0WLJD5JaT+/9sqUv5NZEj6x1EC/3+2Tv1W+Aj60CkO/SpmSv0KB7j3s00W/ju6Qv9QA4j2I6ki/cBePv6g04T0lAUy/DkKNv7ww7D1dyk6/W5yLv+bwAD5gAFG/nU+KvyEUED7Ia1K/WOTlvsSy17tgXbI9Yovtvg7kkDsmm6w9VvfzvgwVgTzI5Js9SIf4vm+Q1zwS3YE948j6vgKaDz2bIEI9n4P6vkx+KD2o0fI8Qr73vlEFND01xEI8PL7yvjQOMT3eQ4e72gDsvkPjHz3R74m8AC/kvrMyAj1Jycy8owzcvgfJtTwv0uO8mWXUvqVGNzxJycy8pfnNvvtaHLnR74m8s2nJvjJoL7zdQ4e7FyjHvq9Xn7w1xEI8XG3HvkMg0byp0fI8uTLKvk0u6LybIEI9vzLPvhJA4rwS3YE9IfDVvjDqv7zI5Js9+8HdvhCJhLwmm6w9QdT2PSiKWD+tq8o+FzjYPVVbWz8fO8k+R4i+PTZCXj+HDcU+gUisPRH2YD+ai74+E0KjPS0zYz9pWLY+JVekPXLBZD9wQa0+mmyvPeJ5ZT93KqQ+sWzDPXBKZT9G95s+OWLePcE3ZD9YdZU+oKn9PbhcYj/BR5E+ihkPPtXnXz8y148+n2cePqgWXT/BR5E+hz8rPscvWj9YdZU+al80Pux7Vz9G95s+ouI4PtA+VT93KqQ+GFg4PouwUz9wQa0+Xs0yPhv4Uj9pWLY+U80oPo0nUz+ai74+j1IbPjw6VD+HDcU+264LPkUVVj8fO8k+C1MFQHz7cDxa3kM9dIQFQAQMCD22KUA9kgwGQGgnTD2maDU9Ed4GQCvzgD2mqCQ9b+QHQP8Ckj10jQ89/QUJQKGXlz3uT/A8ZCYKQDslkT30hME8aSkLQLGafj2RTpc8sfULQDqeRz0inWs8PHcMQPm2Aj3fmEA8XaEMQE+OWjxOxjE8828MQI5MqbvfmEA81ucLQOqJsrwinWs8VxYLQOMDD72RTpc8+Q8KQIsjMb30hME8a+4IQNBMPL3uT/A8A84HQANoL710jQ89/soGQD64C72mqCQ9t/4FQI93qbymaDU9LH0FQGNIfbu2KUA9+a0aQBRuLzwZBoo/Yt8aQFVR7zx06Ik/gGcbQA7EOz1rkok//jgcQPyCcT1rDIk/XD8dQFLRiT2SY4g/62AeQPVljz1mqIc/UoEfQI7ziD067YY/V4QgQFc3bj1gRIY/n1AhQOE6Nz1gvoU/KtIhQD6n5DxYaIU/S/whQOgAGTyzSoU/4cohQK4zFrxYaIU/xEIhQJ5Q07xgvoU/RXEgQD1nH71gRIY/52ofQOWGQb067YY/WEkeQCqwTL1mqIc/8SgdQF3LP72SY4g/7CUcQJgbHL1rDIk/pVkbQEM+yrxrkok/GtgaQIDfALx06Ik/E2gdQPnYiLw5CYE/iGgcQItL17sxXIE/NZkbQCMGqjv5TII/Zg4bQFu2jjwAxIM/sNUaQH/87DyPnIU/ovQaQMUMHj1mqIc/M2gbQH4nOj08tIk/EyUcQCQOSD3MjIs/xhgdQF9kRj3TA40/cSseQN1TNT2b9I0/MEIfQDyIFj2TR44/u0EgQGEK2jyb9I0/DhEhQOprczzTA40/3ZshQBsJLDvMjIs/k9QhQAKKEbw8tIk/orUhQA3il7xmqIc/EUIhQH0X0LyPnIU/MIUgQMnk67wAxIM/fZEfQECR6Lz5TII/034eQDtwxrwxXIE/jfDrPyDXk7+jX+I/d/HpPweLkr+bsuI/0VLoP7YJkb9jo+M/Mj3nP+N4j79qGuU/x8vmP8r/jb/68uY/qgnnP1bDjL/Q/ug/zPDnP4Dii7+nCus/jWrpP0
[...]
wIAAPwCAAD+AgAA+QIAAPwCAAD7AgAA+gIAAP4CAAD9AgAA+wIAAP4CAAD6AgAA/gIAAP8CAAACAwAA/AIAAP8CAAD+AgAA/QIAAAIDAAABAwAA/gIAAAIDAAD9AgAAAAMAAAQDAAAFAwAAAAMAAAIDAAD/AgAAAAMAAAUDAAACAwAABQMAAAYDAAACAwAAAQMAAAgDAAADAwAAAQMAAAIDAAAIAwAAAgMAAAYDAAAIAwAAAwMAAAgDAAAHAwAABQMAAAkDAAALAwAABAMAAAkDAAAFAwAABgMAAAUDAAAMAwAADAMAAAUDAAALAwAACAMAAAYDAAAOAwAADgMAAAYDAAAMAwAABwMAAA4DAAANAwAACAMAAA4DAAAHAwAACQMAAAoDAAALAwAADwMAAAsDAAAKAwAADwMAABEDAAALAwAAEQMAAAwDAAALAwAADgMAAAwDAAAUAwAAFAMAAAwDAAARAwAADQMAABQDAAASAwAADgMAABQDAAANAwAADwMAABADAAARAwAAEwMAABEDAAAQAwAAFAMAABEDAAATAwAAEgMAABQDAAATAwAAFQMAAE0DAABGAwAAFQMAAEgDAAAXAwAARgMAAEgDAAAVAwAAFwMAAEoDAAAZAwAASAMAAEoDAAAXAwAAGQMAAEwDAAAbAwAASgMAAEwDAAAZAwAATAMAAFADAAAbAwAAHQMAAFQDAABOAwAATQMAAB0DAABOAwAATQMAABUDAAAdAwAAFQMAAB8DAAAdAwAAFgMAAB4DAAAfAwAAFgMAAB8DAAAXAwAAFwMAAB8DAAAVAwAAGAMAABYDAAAXAwAAGQMAABgDAAAXAwAAGgMAABgDAAAZAwAAGwMAABoDAAAZAwAAGwMAAFADAABRAwAAGwMAAFEDAAAaAwAAGgMAAFEDAAAcAwAAIAMAAFMDAAAiAwAAIAMAABwDAABTAwAAHAMAAFEDAABTAwAAUwMAAFYDAAAiAwAAHQMAAFUDAABUAwAAVQMAACQDAABZAwAAVQMAAB0DAAAkAwAAHQMAAB8DAAAkAwAAHgMAACMDAAAkAwAAHwMAAB4DAAAkAwAAIAMAACIDAAAhAwAAJgMAAFcDAAAoAwAAIQMAAFcDAAAmAwAAIQMAAFYDAABXAwAAIQMAACIDAABWAwAAVwMAAFwDAAAoAwAAJAMAAFsDAABZAwAAKgMAAF8DAABbAwAAJQMAACoDAABbAwAAJQMAAFsDAAAkAwAAJQMAACQDAAAjAwAAJQMAACkDAAAqAwAAJgMAACgDAAAnAwAALAMAAF0DAAAtAwAAJwMAAF0DAAAsAwAAJwMAAFwDAABdAwAAJwMAACgDAABcAwAAXQMAAGIDAAAtAwAAKgMAAGEDAABfAwAALwMAAGMDAABhAwAAKwMAAC8DAABhAwAAKwMAAGEDAAAqAwAAKwMAACoDAAApAwAAKwMAAC4DAAAvAwAALQMAADIDAAAxAwAALAMAAC0DAAAxAwAAZQMAAC0DAABiAwAAMgMAAC0DAABlAwAAMwMAAGMDAAAvAwAAZgMAAGMDAAAzAwAALgMAADADAAA1AwAALgMAADUDAAAvAwAALwMAADUDAAAzAwAAMAMAADQDAAA1AwAAMgMAADgDAAA2AwAAMQMAADIDAAA2AwAAaAMAADIDAABlAwAAOAMAADIDAABoAwAAOQMAAGYDAAAzAwAAagMAAGYDAAA5AwAANQMAADsDAAAzAwAAOwMAADkDAAAzAwAANAMAADoDAAA7AwAANQMAADQDAAA7AwAANwMAAD8DAAA9AwAANwMAAG0DAAA/AwAANgMAAG0DAAA3AwAANgMAAGkDAABtAwAANgMAADgDAABpAwAAaAMAAGkDAAA4AwAAOQMAAGwDAABqAwAAbAMAAEADAABvAwAAbAMAADkDAABAAwAAOQMAADsDAABAAwAAOgMAADwDAABBAwAAOgMAAEEDAAA7AwAAOwMAAEEDAABAAwAAPAMAAD4DAABCAwAAQQMAADwDAABCAwAAPgMAAD0DAAA/AwAAPgMAAD8DAABCAwAAQgMAAD8DAABDAwAAcgMAAD8DAABtAwAAQwMAAD8DAAByAwAAQAMAAHEDAABvAwAAcQMAAEQDAAB1AwAAcQMAAEADAABEAwAAQAMAAEEDAABEAwAAQgMAAEUDAABBAwAARQMAAEQDAABBAwAAeAMAAEMDAABzAwAAeAMAAEUDAABDAwAARQMAAEIDAABDAwAAcgMAAHMDAABDAwAARAMAAHcDAAB1AwAARQMAAHcDAABEAwAAeQMAAHcDAABFAwAAeAMAAHkDAABFAwAARwMAAIADAAB9AwAARwMAAH4DAABJAwAAfQMAAH4DAABHAwAASQMAAH8DAABLAwAAfgMAAH8DAABJAwAAfwMAAIMDAABLAwAATwMAAIcDAACBAwAAgAMAAE8DAACBAwAARwMAAE8DAACAAwAARwMAAE0DAABPAwAARwMAAEYDAABNAwAASAMAAEYDAABHAwAASQMAAEgDAABHAwAASgMAAEgDAABJAwAASwMAAEoDAABJAwAASwMAAIMDAACEAwAASwMAAIQDAABKAwAASgMAAIQDAABMAwAAUAMAAIYDAABSAwAAUAMAAEwDAACGAwAATAMAAIQDAACGAwAAhgMAAIkDAABSAwAATgMAAIcDAABPAwAATgMAAFQDAACHAwAAVAMAAI8DAACHAwAATQMAAE4DAABPAwAAUAMAAFIDAABRAwAAUgMAAIkDAACKAwAAUgMAAIoDAABRAwAAUQMAAIoDAABTAwAAVgMAAIwDAABYAwAAVgMAAFMDAACMAwAAUwMAAIoDAACMAwAAjAMAAJEDAABYAwAAWgMAAFQDAABVAwAAWgMAAJMDAABUAwAAkwMAAI8DAABUAwAAVQMAAFkDAABaAwAAVgMAAFgDAABXAwAAXAMAAJIDAABeAwAAVwMAAJIDAABcAwAAVwMAAJEDAACSAwAAVwMAAFgDAACRAwAAkgMAAJYDAABeAwAAWgMAAJUDAACTAwAAYAMAAJcDAACVAwAAWwMAAGADAACVAwAAWwMAAJUDAABaAwAAWwMAAFoDAABZAwAAWwMAAF8DAABgAwAAXAMAAF4DAABdAwAAXgMAAGIDAABdAwAAXgMAAJYDAABiAwAAlgMAAJoDAABiAwAAYAMAAJkDAACXAwAAZAMAAJsDAACZAwAAYQMAAGQDAACZAwAAYQMAAJkDAABgAwAAYQMAAGADAABfAwAAYQMAAGMDAABkAwAAYgMAAJoDAABlAwAAmgMAAJ0DAABlAwAAZwMAAJsDAABkAwAAngMAAJsDAABnAwAAYwMAAGYDAABnAwAAZAMAAGMDAABnAwAAZQMAAJ0DAABoAwAAnQMAAJ8DAABoAwAAawMAAJ4DAABnAwAAoAMAAJ4DAABrAwAAZgMAAGoDAABrAwAAZwMAAGYDAABrAwAAaQMAAG4DAABtAwAAaQMAAKIDAABuAwAAaQMAAGgDAACiAwAAaAMAAJ8DAACiAwAAawMAAKEDAACgAwAAcAMAAKQDAAChAwAAbAMAAHADAAChAwAAbAMAAKEDAABrAwAAbAMAAGsDAABqAwAAbAMAAG8DAABwAwAAbgMAAKMDAACmAwAAbgMAAKYDAABtAwAAbQMAAKYDAAByAwAAogMAAKMDAABuAwAAdAMAAKQDAABwAwAAqAMAAKQDAAB0AwAAbwMAAHEDAAB2AwAAbwMAAHYDAABwAwAAcAMAAHYDAAB0AwAAcQMAAHUDAAB2AwAAcwMAAHoDAAB4AwAAcwMAAKsDAAB6AwAAcwMAAHIDAACrAwAAcgMAAKYDAACrAwAAdAMAAKkDAACoAwAAdgMAAKkDAAB0AwAAqgMAAKkDAAB2AwAAewMAAK0DAACqAwAAdwMAAHsDAACqAwAAdwMAAKoDAAB2AwAAdwMAAHYDAAB1AwAAdwMAAHkDAAB8AwAAewMAAHcDAAB8AwAAeQMAALADAAB8AwAAeAMAALADAAB5AwAAeAMAAKwDAACwAwAAeAMAAHoDAACsAwAAqwMAAKwDAAB6AwAAewMAAK8DAACtAwAAfAMAAK8DAAB7AwAAsQMAAK8DAAB8AwAAsAMAALEDAAB8AwAAggMAALkDAACzAwAAggMAAH0DAACAAwAAggMAALMDAAB9AwAAswMAALQDAAB9AwAAfgMAAH0DAAC1AwAAfQMAALQDAAC1AwAAfwMAAH4DAAC3AwAAfgMAALUDAAC3AwAAgwMAALgDAACFAwAAgwMAAH8DAAC4AwAAfwMAALcDAAC4AwAAuAMAALwDAACFAwAAiAMAAMEDAAC6AwAAuQMAAIgDAAC6AwAAggMAAIgDAAC5AwAAggMAAIcDAACIAwAAggMAAIEDAACHAwAAgAMAAIEDAACCAwAAgwMAAIUDAACEAwAAhQMAALwDAAC9AwAAhQMAAL0DAACEAwAAhAMAAL0DAACGAwAAiQMAAL8DAACLAwAAiQMAAIYDAAC/AwAAhgMAAL0DAAC/AwAAvwMAAMQDAACLAwAAjQMAAMYDAADAAwAAjQMAAMIDAACOAwAAwAMAAMIDAACNAwAAwQMAAI4DAADCAwAAwQMAAIgDAACOAwAAiAMAAJADAACOAwAAhwMAAI8DAACQAwAAiAMAAIcDAACQAwAAiQMAAIsDAACKAwAAiwMAAMQDAADFAwAAiwMAAMUDAACKAwAAigMAAMUDAACMAwAAxQMAAJEDAACMAwAAyQMAAJEDAADFAwAAjQMAAMcDAADGAwAAjgMAAMcDAACNAwAAyAMAAMcDAACOAwAAyAMAAJQDAADLAwAAyAMAAI4DAACUAwAAjgMAAJADAACUAwAAjwMAAJMDAACUAwAAkAMAAI8DAACUAwAAkQMAAMkDAADKAwAAkgMAAJEDAADKAwAAygMAAJYDAACSAwAAzQMAAJYDAADKAwAAlAMAAMwDAADLAwAAmAMAAM4DAADMAwAAlQMAAJgDAADMAwAAlQMAAMwDAACUAwAAlQMAAJQDAACTAwAAlQMAAJcDAACYAwAAlgMAAM0DAACaAwAAzQMAANADAACaAwAAmAMAAM8DAADOAwAAnAMAANEDAADPAwAAmQMAAJwDAADPAwAAmQMAAM8DAACYAwAAmQMAAJgDAACXAwAAmQMAAJsDAACcAwAAmgMAANADAACdAwAA0AMAANQDAACdAwAAnAMAANMDAADRAwAA0wMAAJwDAACbAwAA0wMAAJsDAADWAwAA1gMAAJsDAACeAwAAnQMAANQDAACfAwAA1AMAANgDAACfAwAAngMAAKADAADWAwAA1gMAAKADAADaAwAAnwMAANgDAACiAwAA2AMAANwDAACiAwAApQMAAKADAAChAwAApQMAAN0DAACgAwAA3QMAANoDAACgAwAAoQMAAKQDAAClAwAAowMAAKcDAACmAwAAowMAAN8DAACnAwAAowMAAKIDAADfAwAAogMAANwDAADfAwAApQMAAN4DAADdAwAA3gMAAKUDAACkAwAA3gMAAKQDAADhAwAA4QMAAKQDAACoAwAApwMAAOADAADkAwAApwMAAOQDAACmAwAApgMAAOQDAACrAwAA3wMAAOADAACnAwAAqAMAAOMDAADhAwAAqQMAAOMDAACoAwAArgMAAOYDAADjAwAArgMAAOMDAACqAwAAqgMAAOMDAACpAwAAqgMAAK0DAACuAwAArAMAALIDAACwAwAArAMAAOsDAACyAwAArAMAAKsDAADrAwAAqwMAAOQDAADrAwAArgMAAOgDAADmAwAArQMAAOgDAACuAwAArQMAAK8DAADoAwAArwMAAOkDAADoAwAAsQMAAOoDAACvAwAArwMAAOoDAADpAwAAsgMAALEDAACwAwAAsgMAAOwDAACxAwAA7AMAAOoDAACxAwAA6wMAAOwDAACyAwAAtgMAAPIDAADvAwAA7wMAAPUDAAC2AwAAuwMAAPkDAADwAwAAuwMAALMDAAC5AwAAuwMAAPADAACzAwAA8AMAAPEDAACzAwAAtAMAALMDAADzAwAAswMAAPEDAADzAwAA8gMAALYDAAC1AwAA8gMAALUDAADzAwAA8wMAALUDAAC0AwAAtgMAAPUDAAD2AwAAtgMAAPYDAAC1AwAAtQMAAPYDAAC3AwAAuAMAALcDAAD3AwAAtwMAAPYDAAD3AwAAvAMAAPgDAAC+AwAAvAMAALgDAAD4AwAAuAMAAPcDAAD4AwAA+AMAAPsDAAC+AwAAwwMAAP0DAAD6AwAA+QMAAMMDAAD6AwAAuwMAAMMDAAD5AwAAuwMAAMEDAADDAwAAuwMAALoDAADBAwAAuQMAALoDAAC7AwAAvAMAAL4DAAC9AwAAvgMAAPsDAAD8AwAAvgMAAPwDAAC9AwAAvQMAAPwDAAC/AwAA/AMAAMQDAAC/AwAA/wMAAMQDAAD8AwAAwAMAAAEEAAD+AwAAxgMAAAEEAADAAwAA/QMAAMMDAADCAwAA/QMAAMIDAAD+AwAA/gMAAMIDAADAAwAAwQMAAMIDAADDAwAAxAMAAP8DAAAABAAAxQMAAMQDAAAABAAAAAQAAMkDAADFAwAABQQAAMkDAAAABAAAxgMAAAIEAAABBAAAxwMAAAIEAADGAwAAyAMAAAQEAADHAwAAxwMAAAQEAAACBAAABAQAAMgDAADLAwAABwQAAAQEAADLAwAAyQMAAAUEAAAGBAAAygMAAMkDAAAGBAAABgQAAM0DAADKAwAACQQAAM0DAAAGBAAAywMAAAgEAAAHBAAAzAMAAAgEAADLAwAACAQAAMwDAADOAwAACgQAAAgEAADOAwAAzQMAAAkEAADQAwAACQQAAAwEAADQAwAA0gMAAM4DAADPAwAA0gMAAA4EAADOAwAADgQAAAoEAADOAwAAzwMAANEDAADSAwAADQQAANUDAADUAwAADQQAANQDAAAMBAAADAQAANQDAADQAwAADQQAABAEAADVAwAA0gMAAA8EAAAOBAAA1wMAABIEAAAPBAAA0wMAANcDAAAPBAAA0wMAAA8EAADSAwAA0wMAANIDAADRAwAA0wMAANYDAADXAwAA1QMAANkDAADYAwAA1AMAANUDAADYAwAAFAQAANUDAAAQBAAA2QMAANUDAAAUBAAA2wMAABIEAADXAwAAFgQAABIEAADbAwAA1gMAANoDAADbAwAA1wMAANYDAADbAwAA2QMAABUEAAAYBAAA2QMAABgEAADYAwAA2AMAABgEAADcAwAAFAQAABUEAADZAwAA2wMAABcEAAAWBAAAFwQAANsDAADaAwAAFwQAANoDAAAZBAAAGQQAANoDAADdAwAA3AMAABgEAADfAwAAGAQAABsEAADfAwAA4gMAAN0DAADeAwAA4gMAABwEAADdAwAAHAQAABkEAADdAwAA3gMAAOEDAADiAwAA4AMAAOUDAADkAwAA4AMAAB4EAADlAwAA4AMAAN8DAAAeBAAA3wMAABsEAAAeBAAA4gMAAB0EAAAcBAAA5wMAACAEAAAdBAAA4wMAAOcDAAAdBAAA4wMAAB0EAADiAwAA4wMAAOIDAADhAwAA4wMAAOYDAADnAwAA5QMAAB8EAAAjBAAA5QMAACMEAADkAwAA5AMAACMEAADrAwAAHgQAAB8EAADlAwAA5wMAACEEAAAgBAAA5gMAACEEAADnAwAA5gMAAOgDAAAhBAAA6AMAACIEAAAhBAAA7QMAACUEAAAiBAAA7QMAACIEAADpAwAA6QMAACIEAADoAwAA6QMAAOoDAADuAwAA7QMAAOkDAADuAwAAKAQAAO4DAADqAwAAKAQAAOoDAAAkBAAAJAQAAOoDAADsAwAAIwQAAOwDAADrAwAAJAQAAOwDAAAjBAAA7QMAACcEAAAlBAAA7gMAACcEAADtAwAAKQQAACcEAADuAwAAKAQAACkEAADuAwAA9AMAAC0EAAAqBAAA9AMAAO8DAADyAwAA9AMAACoEAADvAwAAKgQAACsEAADvAwAAKwQAAPUDAADvAwAAMAQAAPUDAAArBAAA8AMAADUEAAAsBAAA+QMAADUEAADwAwAA8QMAAPADAAAuBAAA8AMAACwEAAAuBAAALQQAAPQDAADzAwAALQQAAPMDAAAuBAAALgQAAPMDAADxAwAA8gMAAPMDAAD0AwAA9QMAADAEAAAyBAAA9gMAAPUDAAAyBAAA9wMAAPYDAAAzBAAA9gMAADIEAAAzBAAA+AMAAPcDAAA0BAAA9wMAADMEAAA0BAAANAQAAPsDAAD4AwAAOAQAAPsDAAA0BAAA+gMAADsEAAA2BAAA/QMAADsEAAD6AwAANQQAAPkDAAD6AwAANgQAADUEAAD6AwAA+wMAADgEAAA6BAAA/AMAAPsDAAA6BAAAOgQAAP8DAAD8AwAAPQQAAP8DAAA6BAAA/gMAAAEEAAADBAAA/gMAAAMEAAA/BAAA/gMAAD8EAAD9AwAA/QMAAD8EAAA7BAAA/wMAAD0EAAA+BAAAAAQAAP8DAAA+BAAAPgQAAAUEAAAABAAAQgQAAAUEAAA+BAAAAQQAAAIEAAADBAAAAwQAAEAEAAA/BAAAAwQAAAIEAABABAAAAgQAAAQEAABABAAAQAQAAAQEAAAHBAAARAQAAEAEAAAHBAAABQQAAEIEAABDBAAABgQAAAUEAABDBAAAQwQAAAkEAAAGBAAARQQAAAkEAABDBAAACwQAAAcEAAAIBAAACwQAAEcEAAAHBAAARwQAAEQEAAAHBAAACAQAAAoEAAALBAAACQQAAEUEAAAMBAAARQQAAEkEAAAMBAAACwQAAEgEAABHBAAASAQAAAsEAAAKBAAASAQAAAoEAABKBAAASgQAAAoEAAAOBAAAEQQAAA0EAAAMBAAAEQQAAAwEAABLBAAASwQAAAwEAABJBAAADQQAABEEAAAQBAAAEwQAAA4EAAAPBAAAEwQAAE0EAAAOBAAATQQAAEoEAAAOBAAADwQAABIEAAATBAAAEQQAAEsEAABMBAAATAQAABAEAAARBAAATAQAAE8EAAAQBAAATwQAABQEAAAQBAAAEwQAAE4EAABNBAAATgQAABMEAAASBAAATgQAABIEAABSBAAAUgQAABIEAAAWBAAAFQQAAFAEAABTBAAAGAQAABUEAABTBAAATwQAABUEAAAUBAAAUAQAABUEAABPBAAAGgQAABYEAAAXBAAAGgQAAFQEAAAWBAAAVAQAAFIEAAAWBAAAFwQAABkEAAAaBAAAGAQAAFMEAAAbBAAAUwQAAFYEAAAbBAAAGgQAAFUEAABUBAAAVQQAABoEAAAZBAAAVQQAABkEAABXBAAAVwQAABkEAAAcBAAAGwQAAFYEAAAeBAAAVgQAAFkEAAAeBAAAHAQAAFgEAABXBAAAHQQAAFgEAAAcBAAAWAQAAB0EAAAgBAAAXAQAAFgEAAAgBAAAHwQAAFoEAABeBAAAIwQAAB8EAABeBAAAWQQAAB8EAAAeBAAAWgQAAB8EAABZBAAAIAQAAF0EAABcBAAAIQQAAF0EAAAgBAAAJgQAAGAEAABdBAAAJgQAAF0EAAAiBAAAIgQAAF0EAAAhBAAAIgQAACUEAAAmBAAAJAQAAF8EAABkBAAAKAQAACQEAABkBAAAXgQAACQEAAAjBAAAXwQAACQEAABeBAAAJgQAAGEEAABgBAAAJQQAAGEEAAAmBAAAJQQAACcEAABhBAAAJwQAAGMEAABhBAAAKQQAAGUEAAAnBAAAJwQAAGUEAABjBAAAZAQAACkEAAAoBAAAZQQAACkEAABkBAAAKgQAAC0EAAAvBAAAKgQAADEEAAArBAAALwQAADEEAAAqBAAAKwQAADEEAAAwBAAALAQAADUEAAA3BAAAbAQAACwEAAA3BAAAbAQAAGcEAAAsBAAAZwQAAC4EAAAsBAAALwQAAC0EAAAuBAAALwQAAC4EAABoBAAAaAQAAC4EAABnBAAAMQQAAC8EAABoBAAAaQQAADEEAABoBAAAMAQAADEEAABpBAAAMAQAAGkEAAAyBAAAMgQAAGkEAABqBAAAMwQAADIEAABrBAAAMgQAAGoEAABrBAAAOQQAAGsEAABvBAAAOQQAADQEAABrBAAANAQAADMEAABrBAAANAQAADkEAAA4BAAANgQAADsEAAA8BAAANgQAADwEAABzBAAANQQAADYEAABzBAAANQQAAHMEAABtBAAANQQAAG0EAAA3BAAAbAQAADcEAABtBAAAOQQAAG8EAABxBAAAOAQAADkEAABxBAAAOAQAAHEEAAA6BAAAOgQAAHEEAAByBAAAcgQAAD0EAAA6BAAAdQQAAD0EAAByBAAAPAQAAD8EAABBBAAAOwQAAD8EAAA8BAAAeAQAAHMEAAA8BAAAQQQAAHgEAAA8BAAAPQQAAHUEAAB3BAAAPgQAAD0EAAB3BAAAdwQAAEIEAAA+BAAAeQQAAEIEAAB3BAAAPwQAAEAEAABBBAAAQQQAAEAEAABEBAAAQQQAAEQEAAB4BAAAeAQAAEQEAAB7BAAARgQAAEMEAABCBAAARgQAAEIEAAB8BAAAfAQAAEIEAAB5BAAAQwQAAEYEAABFBAAARAQAAEcEAAB7BAAAewQAAEcEAAB+BAAARgQAAHwEAAB9BAAAfQQAAEUEAABGBAAAfQQAAIAEAABFBAAAgAQAAEkEAABFBAAARwQAAH8EAAB+BAAASAQAAH8EAABHBAAAfwQAAEgEAABKBAAAggQAAH8EAABKBAAASQQAAIAEAABLBAAAgAQAAIMEAABLBAAASgQAAE0EAACCBAAAggQAAE0EAACEBAAAUQQAAEwEAABLBAAAUQQAAEsEAACGBAAAhgQAAEsEAACDBAAATAQAAFEEAABPBAAATQQAAIUEAACEBAAATgQAAIUEAABNBAAAhQQAAE4EAABSBAAAhwQAAIUEAABSBAAAUAQAAFEEAACGBAAAUAQAAIYEAABTBAAAUwQAAIYEAACIBAAATwQAAFEEAABQBAAAUgQAAFQEAACHBAAAhwQAAFQEAACJBAAAUwQAAIgEAABWBAAAiAQAAIsEAABWBAAAVAQAAIoEAACJBAAAVQQAAIoEAABUBAAAigQAAFUEAABXBAAAjgQAAIoEAABXBAAAWwQAAIwEAACQBAAAWwQAAIsEAACMBAAAWwQAAFkEAACLBAAAWQQAAFYEAACLBAAAVwQAAI8EAACOBAAAWAQAAI8EAABXBAAAjwQAAFgEAABcBAAAkQQAAI8EAABcBAAAWgQAAFsEAACQBAAAWgQAAJAEAABeBAAAXgQAAJAEAACVBAAAWQQAAFsEAABaBAAAXAQAAJIEAACRBAAAXQQAAJIEAABcBAAAYAQAAGIEAACTBAAAYAQAAJMEAABdBAAAXQQAAJMEAACSBAAAkwQAAGIEAACYBAAAZgQAAJQEAACZBAAAZgQAAGQEAABfBAAAZgQAAF8EAACUBAAAlAQAAF8EAACWBAAAlQQAAF8EAABeBAAAlgQAAF8EAACVBAAAYAQAAGEEAABiBAAAYgQAAJoEAACYBAAAYgQAAGEEAACaBAAAYQQAAGMEAACaBAAAmQQAAGUEAABmBAAAmQQAAJoEAABlBAAAmgQAAGMEAABlBAAAZAQAAGYEAABlBAAAZwQAAGwEAABuBAAAnwQAAGcEAABuBAAAnwQAAJwEAABnBAAAnAQAAGgEAABnBAAAaQQAAGgEAACdBAAAaAQAAJwEAACdBAAAagQAAGkEAACeBAAAaQQAAJ0EAACeBAAAcAQAAJ4EAACjBAAAcAQAAGsEAACeBAAAawQAAGoEAACeBAAAawQAAHAEAABvBAAAbQQAAHMEAAB0BAAAbQQAAHQEAACnBAAAbAQAAG0EAACnBAAAbAQAAKcEAACgBAAAbAQAAKAEAABuBAAAnwQAAG4EAACgBAAAcAQAAKMEAAClBAAAbwQAAHAEAAClBAAAbwQAAKUEAABxBAAAcQQAAKUEAACmBAAAdgQAAKYEAACtBAAAdgQAAHIEAACmBAAAcgQAAHEEAACmBAAAcgQAAHYEAAB1BAAAdAQAALAEAACoBAAAdAQAAHMEAACwBAAAcwQAAHgEAACwBAAApwQAAHQEAACoBAAAdgQAAK0EAACvBAAAegQAAK8EAAC0BAAAdwQAAK8EAAB6BAAAdwQAAHYEAACvBAAAdwQAAHUEAAB2BAAAdwQAAHoEAAB5BAAAeAQAAHsEAACwBAAAsAQAAHsEAAC3BAAAegQAALQEAAC2BAAAtgQAAHkEAAB6BAAAtgQAALoEAAB5BAAAugQAAHwEAAB5BAAAewQAAH4EAAC3BAAAtwQAAH4EAAC8BAAAgQQAAH0EAAB8BAAAgQQAAHwEAAC/BAAAvwQAAHwEAAC6BAAAfQQAAIEEAACABAAAfgQAAL0EAAC8BAAAfwQAAL0EAAB+BAAAvQQAAH8EAACCBAAAwgQAAL0EAACCBAAAgQQAAL8EAADBBAAAwQQAAIAEAACBBAAAwQQAAMMEAACABAAAwwQAAIMEAACABAAAggQAAIQEAADCBAAAwgQAAIQEAADFBAAAgwQAAMMEAACGBAAAwwQAAMgEAACGBAAAhAQAAMYEAADFBAAAhQQAAMYEAACEBAAAxgQAAIUEAACHBAAAygQAAMYEAACHBAAAhgQAAMgEAACIBAAAyAQAAMsEAACIBAAAhwQAAIkEAADKBAAAygQAAIkEAADOBAAAjQQAAMwEAADRBAAAjQQAAMsEAADMBAAAjQQAAIsEAADLBAAAiwQAAIgEAADLBAAAiQQAAM8EAADOBAAAigQAAM8EAACJBAAAzwQAAIoEAACOBAAA0wQAAM8EAACOBAAAjAQAAI0EAADRBAAAjAQAANEEAACQBAAAkAQAANEEAADWBAAAiwQAAI0EAACMBAAAjgQAANQEAADTBAAAjwQAANQEAACOBAAA1AQAAI8EAACRBAAA2QQAANQEAACRBAAAlwQAANcEAADgBAAAlwQAANYEAADXBAAAlwQAAJUEAADWBAAAlQQAAJAEAADWBAAAkQQAANoEAADZBAAAkgQAANoEAACRBAAAkwQAANwEAACSBAAAkgQAANwEAADaBAAAmAQAAJsEAADeBAAAmAQAAN4EAACTBAAAkwQAAN4EAADcBAAAmwQAAJkEAACUBAAAmwQAAJQEAADeBAAA3gQAAJQEAADhBAAA4AQAAJYEAACXBAAA4AQAAOEEAACWBAAA4QQAAJQEAACWBAAAlQQAAJcEAACWBAAAmAQAAJoEAACbBAAAmQQAAJsEAACaBAAAnAQAAJ8EAAChBAAAnAQAAKIEAACdBAAAoQQAAKIEAACcBAAAnQQAAKQEAACeBAAAogQAAKQEAACdBAAAngQAAKQEAACjBAAAoAQAAKcEAACpBAAAoAQAAKEEAACfBAAAoAQAAKkEAAChBAAAqQQAAKoEAAChBAAA5AQAAOMEAACiBAAA5AQAAKIEAACqBAAAqgQAAKIEAAChBAAA4wQAAOYEAACrBAAA4wQAAKsEAACiBAAAogQAAKsEAACkBAAAowQAAKwEAAClBAAAowQAAKQEAACsBAAApAQAAKsEAACsBAAApQQAAK4EAACmBAAArAQAAK4EAAClBAAApgQAAK4EAACtBAAAqAQAALAEAACxBAAAqAQAAKkEAACnBAAAqAQAALEEAACpBAAAsQQAALIEAACpBAAA6gQAAOUEAACqBAAA6gQAAKoEAACyBAAAsgQAAKoEAACpBAAA5AQAAKoEAADlBAAAqwQAAOYEAADoBAAArAQAAKsEAADoBAAA6QQAAKwEAADoBAAA6QQAAO8EAACzBAAA6QQAALMEAACsBAAArAQAALMEAACuBAAArQQAALUEAACvBAAArQQAAK4EAAC1BAAArgQAALMEAAC1BAAArwQAALUEAAC0BAAAsQQAALcEAAC4BAAAsAQAALcEAACxBAAA8gQAAOsEAACyBAAA8gQAALIEAAC4BAAAuAQAALIEAACxBAAA6gQAALIEAADrBAAAswQAAO8EAADxBAAA8QQAAPgEAAC5BAAA8QQAALkEAACzBAAAswQAALkEAAC1BAAAtAQAALsEAAC2BAAAtAQAALUEAAC7BAAAtQQAALkEAAC7BAAAtgQAALsEAAC6BAAAuAQAALwEAAC+BAAAtwQAALwEAAC4BAAA+wQAAPIEAAC4BAAAvgQAAPsEAAC4BAAAuQQAAPgEAAD6BAAA+gQAAP8EAADABAAA+gQAAMAEAAC5BAAAuQQAAMAEAAC7BAAAugQAAMAEAAC/BAAAuwQAAMAEAAC6BAAAvAQAAL0EAAC+BAAAvgQAAL0EAADCBAAAvgQAAMIEAAD7BAAA+wQAAMIEAAACBQAAwAQAAP8EAAABBQAAxAQAAAEFAAAIBQAAwQQAAAEFAADEBAAAwQQAAMAEAAABBQAAwQQAAL8EAADABAAAwQQAAMQEAADDBAAAAwUAAMUEAADHBAAAAwUAAAIFAADFBAAAAgUAAMIEAADFBAAAAwUAAMcEAAAKBQAAyQQAAMQEAAAIBQAADQUAAMkEAAAIBQAAwwQAAMkEAADIBAAAxAQAAMkEAADDBAAAxQQAAMYEAADHBAAAxwQAAMYEAADKBAAAxwQAAMoEAAAKBQAACgUAAMoEAAAPBQAAzQQAAMkEAAANBQAAFAUAAM0EAAANBQAAyAQAAM0EAADLBAAAyQQAAM0EAADIBAAAEAUAAM4EAADQBAAAEAUAAA8FAADOBAAADwUAAMoEAADOBAAAEAUAANAEAAAXBQAA0gQAABUFAAAdBQAAFAUAABUFAADSBAAAzQQAABQFAADSBAAAzQQAANIEAADRBAAAzQQAANEEAADMBAAAywQAAM0EAADMBAAAzgQAAM8EAADQBAAA0wQAANUEAAAYBQAAzwQAANMEAAAYBQAAzwQAABgFAAAXBQAAzwQAABcFAADQBAAAGAUAANUEAAAfBQAA2AQAANIEAAAdBQAAJgUAANgEAAAdBQAA0QQAANgEAADWBAAA0gQAANgEAADRBAAA0wQAANQEAADVBAAA2QQAANsEAAAgBQAA1AQAANkEAAAgBQAA1AQAACAFAAAfBQAA1AQAAB8FAADVBAAA2wQAAN0EAAAiBQAAIAUAANsEAAAiBQAA3QQAAN8EAAAkBQAAIgUAAN0EAAAkBQAA3wQAAOIEAAAnBQAAJAUAAN8EAAAnBQAAJgUAACcFAADiBAAA2AQAACYFAADiBAAA2AQAAOIEAADgBAAA2AQAAOAEAADXBAAA1gQAANgEAADXBAAA2QQAANoEAADbBAAA3AQAANsEAADaBAAA3QQAANsEAADcBAAA3gQAAN0EAADcBAAA3wQAAN0EAADeBAAA4QQAAN8EAADeBAAA4gQAAN8EAADhBAAA4AQAAOIEAADhBAAA4wQAAOQEAADnBAAA4wQAAOcEAADmBAAA5QQAAOoEAADsBAAA5QQAAOcEAADkBAAA5QQAAOwEAADnBAAA7AQAAO0EAADnBAAA5gQAAO4EAADoBAAA5gQAAOcEAADuBAAA5wQAAO0EAADuBAAA6AQAAPAEAADpBAAA7gQAAPAEAADoBAAA6QQAAPAEAADvBAAA6wQAAPIEAADzBAAA6wQAAOwEAADqBAAA6wQAAPMEAADsBAAA8wQAAPQEAADsBAAA7QQAAOwEAAD1BAAA9QQAAOwEAAD0BAAA7gQAAO0EAAD2BAAA9gQAAO0EAAD1BAAA8AQAAO4EAAD3BAAA9wQAAO4EAAD2BAAA7wQAAPkEAADxBAAA7wQAAPAEAAD5BAAA8AQAAPcEAAD5BAAA8QQAAPkEAAD4BAAA8wQAAPsEAAD8BAAA8gQAAPsEAADzBAAA9AQAAPMEAAD9BAAA/QQAAPMEAAD8BAAALAUAACkFAAD1BAAALAUAAPUEAAD9BAAA/QQAAPUEAAD0BAAA9gQAAPUEAAApBQAAKgUAAPYEAAApBQAA9wQAAPYEAAAqBQAAKwUAAPcEAAAqBQAAKwUAAC8FAAD+BAAAKwUAAP4EAAD3BAAA9wQAAP4EAAD5BAAA+AQAAAAFAAD6BAAA+AQAAPkEAAAABQAA+QQAAP4EAAAABQAA+gQAAAAFAAD/BAAA/AQAAAIFAAAEBQAA+wQAAAIFAAD8BAAA/QQAAPwEAAAFBQAABQUAAPwEAAAEBQAAMQUAACwFAAD9BAAABQUAADEFAAD9BAAABgUAAP4EAAAvBQAANAUAAAYFAAAvBQAAAAUAAP4EAAAHBQAABwUAAP4EAAAGBQAA/wQAAAkFAAABBQAA/wQAAAAFAAAJBQAAAAUAAAcFAAAJBQAAAQUAAAkFAAAIBQAAAgUAAAMFAAAEBQAACgUAAAQFAAADBQAACgUAAAsFAAAEBQAACwUAAAUFAAAEBQAANwUAADEFAAAFBQAACwUAADcFAAAFBQAABgUAADQFAAA2BQAANgUAADwFAAAMBQAANgUAAAwFAAAGBQAABgUAAAwFAAAHBQAACQUAAAcFAAAOBQAADgUAAAcFAAAMBQAACAUAAA4FAAANBQAACQUAAA4FAAAIBQAACwUAAA8FAAARBQAACgUAAA8FAAALBQAAOAUAADcFAAALBQAAOAUAAAsFAAASBQAAEgUAAAsFAAARBQAAOAUAABIFAAA+BQAAEwUAAAwFAAA8BQAAQwUAABMFAAA8BQAADgUAAAwFAAAWBQAAFgUAAAwFAAATBQAADQUAABYFAAAUBQAADgUAABYFAAANBQAADwUAABAFAAARBQAAFwUAABEFAAAQBQAAFwUAABkFAAARBQAAGQUAABIFAAARBQAAPwUAAD4FAAASBQAAPwUAABIFAAAaBQAAGgUAABIFAAAZBQAAGgUAABsFAABBBQAAPwUAABoFAABBBQAAGwUAABwFAABEBQAAQQUAABsFAABEBQAAQwUAAEQFAAAcBQAAQwUAABwFAAATBQAAEwUAABwFAAAeBQAAFQUAAB4FAAAdBQAAFQUAABYFAAAeBQAAFgUAABMFAAAeBQAAFAUAABYFAAAVBQAAFwUAABgFAAAZBQAAHwUAABkFAAAYBQAAHwUAACEFAAAZBQAAIQUAABoFAAAZBQAAGwUAABoFAAAjBQAAIwUAABoFAAAhBQAAHAUAABsFAAAlBQAAJQUAABsFAAAjBQAAHgUAABwFAAAoBQAAKAUAABwFAAAlBQAAHQUAACgFAAAmBQAAHgUAACgFAAAdBQAAHwUAACAFAAAhBQAAIgUAACEFAAAgBQAAIwUAACEFAAAiBQAAJAUAACMFAAAiBQAAJQUAACMFAAAkBQAAJwUAACUFAAAkBQAAKAUAACUFAAAnBQAAJgUAACgFAAAnBQAAKQUAACwFAAAtBQAAKQUAAC4FAAAqBQAALQUAAC4FAAApBQAAKgUAADAFAAArBQAALgUAADAFAAAqBQAAKwUAADAFAAAvBQAALQUAADEFAAAyBQAALAUAADEFAAAtBQAALgUAAC0FAAAzBQAAMwUAAC0FAAAyBQAAMAUAAC4FAAA1BQAANQUAAC4FAAAzBQAALwUAADUFAAA0BQAAMAUAADUFAAAvBQAAMgUAADcFAAA5BQAAMQUAADcFAAAyBQAAMwUAADIFAAA6BQAAOgUAADIFAAA5BQAANQUAADMFAAA7BQAAOwUAADMFAAA6BQAANAUAAD0FAAA2BQAANAUAADUFAAA9BQAANQUAADsFAAA9BQAANgUAAD0FAAA8BQAANwUAADgFAAA5BQAAPgUAADkFAAA4BQAAPgUAAEAFAAA5BQAAQAUAADoFAAA5BQAAOwUAADoFAABCBQAAQgUAADoFAABABQAAPQUAADsFAABFBQAARQUAADsFAABCBQAAPAUAAEUFAABDBQAAPQUAAEUFAAA8BQAAPgUAAD8FAABABQAAQQUAAEAFAAA/BQAAQgUAAEAFAABBBQAARAUAAEIFAABBBQAARQUAAEIFAABEBQAAQwUAAEUFAABEBQAA"}],"cameras":[{"perspective":{"aspectRatio":1.3333333333333333,"yfov":0.5235987755982988,"zfar":1000.01,"znear":0.01},"type":"perspective"}],"materials":[{"pbrMetallicRoughness":{"baseColorFactor":[0.6784313725490196,0.8470588235294118,0.9019607843137255,1.0],"metallicFactor":0.0,"roughnessFactor":1.0}},{"pbrMetallicRoughness":{"baseColorFactor":[0.9647058823529412,0.0196078431372549,0.0196078431372549,1.0],"metallicFactor":0.0,"roughnessFactor":1.0}},{"pbrMetallicRoughness":{"baseColorFactor":[0.3215686274509804,0.027450980392156862,0.9529411764705882,1.0],"metallicFactor":0.0,"roughnessFactor":1.0}}],"meshes":[{"name":"mesh0","primitives":[{"attributes":{"COLOR_0":2,"NORMAL":1,"POSITION":0},"indices":3,"material":0,"mode":4}]},{"name":"mesh1","primitives":[{"attributes":{"POSITION":4},"indices":5,"material":1,"mode":4}]},{"name":"mesh2","primitives":[{"attributes":{"POSITION":6},"indices":7,"material":2,"mode":4}]}],"nodes":[{"matrix":[2.220446049250314e-16,-3.330669073875469e-16,1.0000000000000002,0.0,1.0,2.220446049250313e-16,-2.220446049250313e-16,0.0,-2.2204460492503128e-16,1.0000000000000002,3.3306690738754696e-16,0.0,0.0,0.0,0.0,1.0],"mesh":0,"name":"mesh0"},{"matrix":[2.220446049250314e-16,-3.330669073875469e-16,1.0000000000000002,0.0,1.0,2.220446049250313e-16,-2.220446049250313e-16,0.0,-2.2204460492503128e-16,1.0000000000000002,3.3306690738754696e-16,0.0,0.0,0.0,0.0,1.0],"mesh":1,"name":"mesh1"},{"matrix":[2.220446049250314e-16,-3.330669073875469e-16,1.0000000000000002,0.0,1.0,2.220446049250313e-16,-2.220446049250313e-16,0.0,-2.2204460492503128e-16,1.0000000000000002,3.3306690738754696e-16,0.0,0.0,0.0,0.0,1.0],"mesh":2,"name":"mesh2"},{"camera":0,"matrix":[1.0,-0.0,0.0,-0.0,-0.0,1.0,-0.0,0.0,0.0,-0.0,1.0,-0.0,-0.0,0.0,1.0,1.0],"name":"Camera Node"},{"children":[0,1,2,3],"name":"Renderer Node"}],"scene":0,"scenes":[{"name":"Layer 0","nodes":[4]}]}